*Heading
** Job name: BakeTransient2 Model name: Model-1
** Generated by: Abaqus/CAE 2025
*Preprint, echo=NO, model=NO, history=NO, contact=NO
**
** PARTS
**
*Part, name=Cylinder-(Aluminum)
*Node
      1,   47.8470154,   93.8596573,   37.4303055
      2,   44.0960617,   98.3874588,    29.587923
      3,   35.3553391,   104.280212,   19.3813782
      4,   23.5698376,   108.650574,   11.8116894
      5,   14.5142336,   110.526047,   8.56326771
      6,           0.,   111.602539,   6.69872999
      7,  -14.5142336,   110.526047,   8.56326771
      8,  -23.5698376,   108.650574,   11.8116894
      9,  -35.3553391,   104.280212,   19.3813782
     10,  -44.0960617,   98.3874588,    29.587923
     11,  -47.8470154,   93.8596573,   37.4303055
     12,         -50.,   86.6025391,          50.
     13,  -47.8470154,   79.3454208,   62.5696945
     14,  -44.0960617,   74.8176193,   70.4120789
     15,  -35.3553391,   68.9248734,   80.6186218
     16,  -23.5698376,    64.554512,   88.1883087
     17,  -14.5142336,   62.6790314,   91.4367294
     18,           0.,   61.6025391,   93.3012695
     19,   14.5142336,   62.6790314,   91.4367294
     20,   23.5698376,    64.554512,   88.1883087
** ... 10249 like lines cut
*Element, type=C3D8T
   1,   137,    77,     5,    32,   626,   566,   494,   521
   2,   407,   408,    78,    79,   896,   897,   567,   568
   3,    65,   124,    31,    30,   554,   613,   520,   519
   4,    81,    66,    37,     7,   570,   555,   526,   496
   5,    76,    75,   171,   108,   565,   564,   660,   597
   6,   140,    82,    39,    38,   629,   571,   528,   527
   7,    10,    41,    84,    85,   499,   530,   573,   574
   8,    26,    25,    71,    72,   515,   514,   560,   561
   9,    86,    67,    43,    11,   575,   556,   532,   500
  10,    46,    45,   138,    87,   535,   534,   627,   576
  11,   131,    89,    14,    47,   620,   578,   503,   536
  12,    15,    49,    90,    91,   504,   538,   579,   580
  13,    91,    68,    50,    15,   580,   557,   539,   504
  14,   136,    92,    17,    52,   625,   581,   506,   541
  15,    55,    18,   405,    94,   544,   507,   894,   583
  16,    56,    55,    94,    95,   545,   544,   583,   584
  17,    92,   136,   147,   157,   581,   625,   636,   646
  18,    98,    99,    21,    59,   587,   588,   510,   548
  19,    22,    61,   100,   101,   511,   550,   589,   590
  20,    70,   102,    23,    62,   559,   591,   512,   551
** ... 9100 like lines cut
*Nset, nset=Set-1, generate
     1,  10269,      1
*Elset, elset=Set-1, generate
    1,  9120,     1
** Section: Aluminum-Section
*Solid Section, elset=Set-1, material=Aluminum
,
*End Part
**  
**
** ASSEMBLY
**
*Assembly, name=Assembly
**  
*Instance, name=Cylinder-(Aluminum), part=Cylinder-(Aluminum)
*End Instance
**  
*Nset, nset=Fixed-Set, instance=Cylinder-(Aluminum), generate
  9781,  10269,      1
*Elset, elset=Fixed-Set, instance=Cylinder-(Aluminum), generate
 8665,  9120,     1
*Nset, nset=Set-1, instance=Cylinder-(Aluminum), generate
     1,  10269,      1
*Elset, elset=Set-1, instance=Cylinder-(Aluminum), generate
    1,  9120,     1
*Elset, elset=_All-Surfaces_S5, internal, instance=Cylinder-(Aluminum)
    1,    3,    4,    6,    9,   11,   13,   14,   18,   20,   23,   27,   32,   33,   36,   39
   45,   50,   52,   53,   54,   55,   56,   57,   58,   61,   65,   66,   69,   75,   77,   80
   82,   84,   87,   89,   93,  100,  104,  107,  135,  137,  436,  457,  459,  460,  462,  465
  467,  469,  470,  474,  476,  479,  483,  488,  489,  492,  495,  501,  506,  508,  509,  510
  511,  512,  513,  514,  517,  521,  522,  525,  531,  533,  536,  538,  540,  543,  545,  549
  556,  560,  563,  591,  593,  892,  913,  915,  916,  918,  921,  923,  925,  926,  930,  932
  935,  939,  944,  945,  948,  951,  957,  962,  964,  965,  966,  967,  968,  969,  970,  973
  977,  978,  981,  987,  989,  992,  994,  996,  999, 1001, 1005, 1012, 1016, 1019, 1047, 1049
 1348, 1369, 1371, 1372, 1374, 1377, 1379, 1381, 1382, 1386, 1388, 1391, 1395, 1400, 1401, 1404
 1407, 1413, 1418, 1420, 1421, 1422, 1423, 1424, 1425, 1426, 1429, 1433, 1434, 1437, 1443, 1445
 1448, 1450, 1452, 1455, 1457, 1461, 1468, 1472, 1475, 1503, 1505, 1804, 1825, 1827, 1828, 1830
 1833, 1835, 1837, 1838, 1842, 1844, 1847, 1851, 1856, 1857, 1860, 1863, 1869, 1874, 1876, 1877
 1878, 1879, 1880, 1881, 1882, 1885, 1889, 1890, 1893, 1899, 1901, 1904, 1906, 1908, 1911, 1913
 1917, 1924, 1928, 1931, 1959, 1961, 2260, 2281, 2283, 2284, 2286, 2289, 2291, 2293, 2294, 2298
 2300, 2303, 2307, 2312, 2313, 2316, 2319, 2325, 2330, 2332, 2333, 2334, 2335, 2336, 2337, 2338
 2341, 2345, 2346, 2349, 2355, 2357, 2360, 2362, 2364, 2367, 2369, 2373, 2380, 2384, 2387, 2415
 2417, 2716, 2737, 2739, 2740, 2742, 2745, 2747, 2749, 2750, 2754, 2756, 2759, 2763, 2768, 2769
 2772, 2775, 2781, 2786, 2788, 2789, 2790, 2791, 2792, 2793, 2794, 2797, 2801, 2802, 2805, 2811
 2813, 2816, 2818, 2820, 2823, 2825, 2829, 2836, 2840, 2843, 2871, 2873, 3172, 3193, 3195, 3196
 3198, 3201, 3203, 3205, 3206, 3210, 3212, 3215, 3219, 3224, 3225, 3228, 3231, 3237, 3242, 3244
** ... 34 like lines cut
*Elset, elset=_All-Surfaces_S3, internal, instance=Cylinder-(Aluminum)
    7,    8,   10,   12,   15,   16,   19,   21,   24,   25,   26,   44,   47,   49,   51,   71
   96,  132,  134,  434,  463,  464,  466,  468,  471,  472,  475,  477,  480,  481,  482,  500
  503,  505,  507,  527,  552,  588,  590,  890,  919,  920,  922,  924,  927,  928,  931,  933
  936,  937,  938,  956,  959,  961,  963,  983, 1008, 1044, 1046, 1346, 1375, 1376, 1378, 1380
 1383, 1384, 1387, 1389, 1392, 1393, 1394, 1412, 1415, 1417, 1419, 1439, 1464, 1500, 1502, 1802
 1831, 1832, 1834, 1836, 1839, 1840, 1843, 1845, 1848, 1849, 1850, 1868, 1871, 1873, 1875, 1895
 1920, 1956, 1958, 2258, 2287, 2288, 2290, 2292, 2295, 2296, 2299, 2301, 2304, 2305, 2306, 2324
 2327, 2329, 2331, 2351, 2376, 2412, 2414, 2714, 2743, 2744, 2746, 2748, 2751, 2752, 2755, 2757
 2760, 2761, 2762, 2780, 2783, 2785, 2787, 2807, 2832, 2868, 2870, 3170, 3199, 3200, 3202, 3204
 3207, 3208, 3211, 3213, 3216, 3217, 3218, 3236, 3239, 3241, 3243, 3263, 3288, 3324, 3326, 3626
 3655, 3656, 3658, 3660, 3663, 3664, 3667, 3669, 3672, 3673, 3674, 3692, 3695, 3697, 3699, 3719
 3744, 3780, 3782, 4082, 4111, 4112, 4114, 4116, 4119, 4120, 4123, 4125, 4128, 4129, 4130, 4148
 4151, 4153, 4155, 4175, 4200, 4236, 4238, 4538, 4567, 4568, 4570, 4572, 4575, 4576, 4579, 4581
 4584, 4585, 4586, 4604, 4607, 4609, 4611, 4631, 4656, 4692, 4694, 4994, 5023, 5024, 5026, 5028
 5031, 5032, 5035, 5037, 5040, 5041, 5042, 5060, 5063, 5065, 5067, 5087, 5112, 5148, 5150, 5450
 5479, 5480, 5482, 5484, 5487, 5488, 5491, 5493, 5496, 5497, 5498, 5516, 5519, 5521, 5523, 5543
 5568, 5604, 5606, 5906, 5935, 5936, 5938, 5940, 5943, 5944, 5947, 5949, 5952, 5953, 5954, 5972
 5975, 5977, 5979, 5999, 6024, 6060, 6062, 6362, 6391, 6392, 6394, 6396, 6399, 6400, 6403, 6405
 6408, 6409, 6410, 6428, 6431, 6433, 6435, 6455, 6480, 6516, 6518, 6818, 6847, 6848, 6850, 6852
 6855, 6856, 6859, 6861, 6864, 6865, 6866, 6884, 6887, 6889, 6891, 6911, 6936, 6972, 6974, 7274
** ... 5 like lines cut
*Elset, elset=_All-Surfaces_S6, internal, instance=Cylinder-(Aluminum), generate
   28,  8692,   456
*Elset, elset=_All-Surfaces_S2, internal, instance=Cylinder-(Aluminum), generate
 8665,  9120,     1
*Elset, elset=_All-Surfaces_S1, internal, instance=Cylinder-(Aluminum), generate
   1,  456,    1
*Surface, type=ELEMENT, name=All-Surfaces
_All-Surfaces_S5, S5
_All-Surfaces_S3, S3
_All-Surfaces_S6, S6
_All-Surfaces_S2, S2
_All-Surfaces_S1, S1
*End Assembly
*Amplitude, name=InstantVacuum
             0.,              1.,              4.,              1.
** 
** MATERIALS
** 
*Material, name=Aluminum
*Conductivity
237.,
*Density
2300.,
*Elastic
 7e+10, 0.3
*Expansion
 5e-06,
*Specific Heat
900.,
** 
** PHYSICAL CONSTANTS
** 
*Physical Constants, absolute zero=0., stefan boltzmann=5.67e-08
** 
** PREDEFINED FIELDS
** 
** Name: Temp0   Type: Temperature
*Initial Conditions, type=TEMPERATURE
Set-1, 4.
** ----------------------------------------------------------------
** 
** STEP: Bake
** 
*Step, name=Bake, nlgeom=NO
*Coupled Temperature-displacement, creep=none, deltmx=5.
0.2, 4., 4e-05, 0.2
** 
** BOUNDARY CONDITIONS
** 
** Name: FixFace Type: Symmetry/Antisymmetry/Encastre
*Boundary
Fixed-Set, ENCASTRE
** 
** LOADS
** 
** Name: Load-1   Type: Surface heat flux Using Field: AnalyticalField-1
*Dflux
Cylinder-(Aluminum).8, S3, 60.8115
Cylinder-(Aluminum).10, S3, 41.7447
Cylinder-(Aluminum).11, S5, 60.322
Cylinder-(Aluminum).12, S3, 71.1139
Cylinder-(Aluminum).13, S5, 82.057
Cylinder-(Aluminum).14, S5, 110.877
Cylinder-(Aluminum).16, S3, 112.603
Cylinder-(Aluminum).18, S5, 87.2161
Cylinder-(Aluminum).19, S3, 64.9753
Cylinder-(Aluminum).20, S5, 39.6071
Cylinder-(Aluminum).21, S3, 48.8488
Cylinder-(Aluminum).36, S5, 33.5058
Cylinder-(Aluminum).39, S5, 108.174
Cylinder-(Aluminum).44, S3, 95.9914
Cylinder-(Aluminum).45, S5, 87.3855
Cylinder-(Aluminum).47, S3, 53.2085
Cylinder-(Aluminum).49, S3, 48.8488
Cylinder-(Aluminum).53, S5, 49.2413
Cylinder-(Aluminum).54, S5, 94.6224
Cylinder-(Aluminum).55, S5, 101.081
** ... 946 like lines cut
** 
** INTERACTIONS
** 
** Interaction: ToVacuum
*Sradiate, amplitude=InstantVacuum
All-Surfaces, R, 4., 1.
** 
** OUTPUT REQUESTS
** 
*Restart, write, frequency=0
** 
** FIELD OUTPUT: F-Output-1
** 
*Output, field, variable=PRESELECT
** 
** HISTORY OUTPUT: H-Output-1
** 
*Output, history, variable=PRESELECT
*End Step
