*Heading
** Job name: BakeTransient2 Model name: Model-1
** Generated by: Abaqus/CAE 2025
*Preprint, echo=NO, model=NO, history=NO, contact=NO
**
** PARTS
**
*Part, name=Cylinder-(Aluminum)
*Node
      1,  0.478470176,  0.938596547,  0.374303043
      2,  0.440960646,  0.983874559,  0.295879215
      3,  0.353553385,    1.0428021,  0.193813786
      4,  0.235698372,   1.08650577,  0.118116893
      5,  0.145142332,   1.10526049, 0.0856326818
      6,           0.,   1.11602545, 0.0669872984
      7, -0.145142332,   1.10526049, 0.0856326818
      8, -0.235698372,   1.08650577,  0.118116893
      9, -0.353553385,    1.0428021,  0.193813786
     10, -0.440960646,  0.983874559,  0.295879215
     11, -0.478470176,  0.938596547,  0.374303043
     12,         -0.5,  0.866025388,          0.5
     13, -0.478470176,   0.79345423,  0.625696957
     14, -0.440960646,  0.748176217,  0.704120755
     15, -0.353553385,  0.689248681,  0.806186199
     16, -0.235698372,  0.645545065,  0.881883085
     17, -0.145142332,  0.626790345,  0.914367318
     18,           0.,  0.616025388,  0.933012724
     19,  0.145142332,  0.626790345,  0.914367318
     20,  0.235698372,  0.645545065,  0.881883085
** ... 10123 like lines cut
*Element, type=C3D8T
   1,   139,    77,     5,    32,   622,   560,   488,   515
   2,   405,   404,     6,    34,   888,   887,   489,   517
   3,    65,   131,    31,    30,   548,   614,   514,   513
   4,    81,    66,    37,     7,   564,   549,   520,   490
   5,    76,    75,   152,   110,   559,   558,   635,   593
   6,   138,    82,    39,    38,   621,   565,   522,   521
   7,    10,    41,    84,    85,   493,   524,   567,   568
   8,    26,    25,    71,    72,   509,   508,   554,   555
   9,    86,    67,    43,    11,   569,   550,   526,   494
  10,    46,    45,   137,    87,   529,   528,   620,   570
  11,   130,    89,    14,    47,   613,   572,   497,   530
  12,    15,    49,    90,    91,   498,   532,   573,   574
  13,    91,    68,    50,    15,   574,   551,   533,   498
  14,   136,    92,    17,    52,   619,   575,   500,   535
  15,    93,    94,    18,    54,   576,   577,   501,   537
  16,    56,    55,   401,    95,   539,   538,   884,   578
  17,   155,   150,    93,   121,   638,   633,   576,   604
  18,    98,    99,    21,    59,   581,   582,   504,   542
  19,    22,    61,   100,   101,   505,   544,   583,   584
  20,    70,   102,    23,    62,   553,   585,   506,   545
** ... 8980 like lines cut
*Nset, nset=Set-3, generate
     1,  10143,      1
*Elset, elset=Set-3, generate
    1,  9000,     1
** Section: Aluminum-Section
*Solid Section, elset=Set-3, material=Aluminum
,
*End Part
**  
**
** ASSEMBLY
**
*Assembly, name=Assembly
**  
*Instance, name=Cylinder-(Aluminum), part=Cylinder-(Aluminum)
*End Instance
**  
*Nset, nset=Fixed-Set, instance=Cylinder-(Aluminum), generate
  9661,  10143,      1
*Elset, elset=Fixed-Set, instance=Cylinder-(Aluminum), generate
 8551,  9000,     1
*Nset, nset=Set-1, instance=Cylinder-(Aluminum), generate
     1,  10143,      1
*Elset, elset=Set-1, instance=Cylinder-(Aluminum), generate
    1,  9000,     1
*Elset, elset=_All-Surfaces_S5, internal, instance=Cylinder-(Aluminum)
    1,    2,    3,    4,    6,    9,   11,   13,   14,   15,   18,   20,   23,   27,   32,   33
   36,   39,   44,   49,   51,   52,   53,   54,   55,   56,   57,   60,   64,   66,   69,   75
   77,   81,   83,   85,   88,   89,   93,   94,  101,  105,  108,  137,  138,  451,  452,  453
  454,  456,  459,  461,  463,  464,  465,  468,  470,  473,  477,  482,  483,  486,  489,  494
  499,  501,  502,  503,  504,  505,  506,  507,  510,  514,  516,  519,  525,  527,  531,  533
  535,  538,  539,  543,  544,  551,  555,  558,  587,  588,  901,  902,  903,  904,  906,  909
  911,  913,  914,  915,  918,  920,  923,  927,  932,  933,  936,  939,  944,  949,  951,  952
  953,  954,  955,  956,  957,  960,  964,  966,  969,  975,  977,  981,  983,  985,  988,  989
  993,  994, 1001, 1005, 1008, 1037, 1038, 1351, 1352, 1353, 1354, 1356, 1359, 1361, 1363, 1364
 1365, 1368, 1370, 1373, 1377, 1382, 1383, 1386, 1389, 1394, 1399, 1401, 1402, 1403, 1404, 1405
 1406, 1407, 1410, 1414, 1416, 1419, 1425, 1427, 1431, 1433, 1435, 1438, 1439, 1443, 1444, 1451
 1455, 1458, 1487, 1488, 1801, 1802, 1803, 1804, 1806, 1809, 1811, 1813, 1814, 1815, 1818, 1820
 1823, 1827, 1832, 1833, 1836, 1839, 1844, 1849, 1851, 1852, 1853, 1854, 1855, 1856, 1857, 1860
 1864, 1866, 1869, 1875, 1877, 1881, 1883, 1885, 1888, 1889, 1893, 1894, 1901, 1905, 1908, 1937
 1938, 2251, 2252, 2253, 2254, 2256, 2259, 2261, 2263, 2264, 2265, 2268, 2270, 2273, 2277, 2282
 2283, 2286, 2289, 2294, 2299, 2301, 2302, 2303, 2304, 2305, 2306, 2307, 2310, 2314, 2316, 2319
 2325, 2327, 2331, 2333, 2335, 2338, 2339, 2343, 2344, 2351, 2355, 2358, 2387, 2388, 2701, 2702
 2703, 2704, 2706, 2709, 2711, 2713, 2714, 2715, 2718, 2720, 2723, 2727, 2732, 2733, 2736, 2739
 2744, 2749, 2751, 2752, 2753, 2754, 2755, 2756, 2757, 2760, 2764, 2766, 2769, 2775, 2777, 2781
 2783, 2785, 2788, 2789, 2793, 2794, 2801, 2805, 2808, 2837, 2838, 3151, 3152, 3153, 3154, 3156
** ... 37 like lines cut
*Elset, elset=_All-Surfaces_S3, internal, instance=Cylinder-(Aluminum)
    7,    8,   10,   12,   16,   19,   21,   24,   25,   26,   43,   46,   48,   50,   97,  132
  135,  428,  457,  458,  460,  462,  466,  469,  471,  474,  475,  476,  493,  496,  498,  500
  547,  582,  585,  878,  907,  908,  910,  912,  916,  919,  921,  924,  925,  926,  943,  946
  948,  950,  997, 1032, 1035, 1328, 1357, 1358, 1360, 1362, 1366, 1369, 1371, 1374, 1375, 1376
 1393, 1396, 1398, 1400, 1447, 1482, 1485, 1778, 1807, 1808, 1810, 1812, 1816, 1819, 1821, 1824
 1825, 1826, 1843, 1846, 1848, 1850, 1897, 1932, 1935, 2228, 2257, 2258, 2260, 2262, 2266, 2269
 2271, 2274, 2275, 2276, 2293, 2296, 2298, 2300, 2347, 2382, 2385, 2678, 2707, 2708, 2710, 2712
 2716, 2719, 2721, 2724, 2725, 2726, 2743, 2746, 2748, 2750, 2797, 2832, 2835, 3128, 3157, 3158
 3160, 3162, 3166, 3169, 3171, 3174, 3175, 3176, 3193, 3196, 3198, 3200, 3247, 3282, 3285, 3578
 3607, 3608, 3610, 3612, 3616, 3619, 3621, 3624, 3625, 3626, 3643, 3646, 3648, 3650, 3697, 3732
 3735, 4028, 4057, 4058, 4060, 4062, 4066, 4069, 4071, 4074, 4075, 4076, 4093, 4096, 4098, 4100
 4147, 4182, 4185, 4478, 4507, 4508, 4510, 4512, 4516, 4519, 4521, 4524, 4525, 4526, 4543, 4546
 4548, 4550, 4597, 4632, 4635, 4928, 4957, 4958, 4960, 4962, 4966, 4969, 4971, 4974, 4975, 4976
 4993, 4996, 4998, 5000, 5047, 5082, 5085, 5378, 5407, 5408, 5410, 5412, 5416, 5419, 5421, 5424
 5425, 5426, 5443, 5446, 5448, 5450, 5497, 5532, 5535, 5828, 5857, 5858, 5860, 5862, 5866, 5869
 5871, 5874, 5875, 5876, 5893, 5896, 5898, 5900, 5947, 5982, 5985, 6278, 6307, 6308, 6310, 6312
 6316, 6319, 6321, 6324, 6325, 6326, 6343, 6346, 6348, 6350, 6397, 6432, 6435, 6728, 6757, 6758
 6760, 6762, 6766, 6769, 6771, 6774, 6775, 6776, 6793, 6796, 6798, 6800, 6847, 6882, 6885, 7178
 7207, 7208, 7210, 7212, 7216, 7219, 7221, 7224, 7225, 7226, 7243, 7246, 7248, 7250, 7297, 7332
 7335, 7628, 7657, 7658, 7660, 7662, 7666, 7669, 7671, 7674, 7675, 7676, 7693, 7696, 7698, 7700
 7747, 7782, 7785, 8078, 8107, 8108, 8110, 8112, 8116, 8119, 8121, 8124, 8125, 8126, 8143, 8146
 8148, 8150, 8197, 8232, 8235, 8528, 8557, 8558, 8560, 8562, 8566, 8569, 8571, 8574, 8575, 8576
 8593, 8596, 8598, 8600, 8647, 8682, 8685, 8978
*Elset, elset=_All-Surfaces_S6, internal, instance=Cylinder-(Aluminum), generate
   28,  8578,   450
*Elset, elset=_All-Surfaces_S2, internal, instance=Cylinder-(Aluminum), generate
 8551,  9000,     1
*Elset, elset=_All-Surfaces_S1, internal, instance=Cylinder-(Aluminum), generate
   1,  450,    1
*Surface, type=ELEMENT, name=All-Surfaces
_All-Surfaces_S5, S5
_All-Surfaces_S3, S3
_All-Surfaces_S6, S6
_All-Surfaces_S2, S2
_All-Surfaces_S1, S1
*End Assembly
*Amplitude, name=InstantVacuum
             0.,              1.,              4.,              1.
** 
** MATERIALS
** 
*Material, name=Aluminum
*Conductivity
237.,
*Density
2300.,
*Elastic
 7e+10, 0.3
*Expansion
 5e-06,
*Specific Heat
900.,
** 
** PHYSICAL CONSTANTS
** 
*Physical Constants, absolute zero=0., stefan boltzmann=5.67e-08
** 
** PREDEFINED FIELDS
** 
** Name: Temp0   Type: Temperature
*Initial Conditions, type=TEMPERATURE
Set-1, 4.
** ----------------------------------------------------------------
** 
** STEP: Bake
** 
*Step, name=Bake, nlgeom=NO
*Coupled Temperature-displacement, creep=none, deltmx=5.
0.2, 4., 4e-05, 0.2
** 
** BOUNDARY CONDITIONS
** 
** Name: FixFace Type: Symmetry/Antisymmetry/Encastre
*Boundary
Fixed-Set, ENCASTRE
** 
** LOADS
** 
** Name: Load-1   Type: Surface heat flux Using Field: AnalyticalField-1
*Dflux
Cylinder-(Aluminum).10, S3, 42.3962
Cylinder-(Aluminum).11, S5, 50.3759
Cylinder-(Aluminum).12, S3, 79.148
Cylinder-(Aluminum).13, S5, 87.2776
Cylinder-(Aluminum).14, S5, 110.969
Cylinder-(Aluminum).15, S5, 117.716
Cylinder-(Aluminum).18, S5, 87.3311
Cylinder-(Aluminum).19, S3, 60.5753
Cylinder-(Aluminum).20, S5, 39.6858
Cylinder-(Aluminum).36, S5, 28.6038
Cylinder-(Aluminum).39, S5, 114.329
Cylinder-(Aluminum).44, S5, 94.6655
Cylinder-(Aluminum).46, S3, 50.3754
Cylinder-(Aluminum).53, S5, 94.6411
Cylinder-(Aluminum).54, S5, 101.092
Cylinder-(Aluminum).56, S5, 101.082
Cylinder-(Aluminum).57, S5, 28.6175
Cylinder-(Aluminum).85, S5, 39.7009
Cylinder-(Aluminum).88, S5, 60.5664
Cylinder-(Aluminum).89, S5, 70.185
** ... 827 like lines cut
** 
** INTERACTIONS
** 
** Interaction: ToVacuum
*Sradiate, amplitude=InstantVacuum
All-Surfaces, R, 4., 1.
** 
** OUTPUT REQUESTS
** 
*Restart, write, frequency=0
** 
** FIELD OUTPUT: F-Output-1
** 
*Output, field, variable=PRESELECT
** 
** HISTORY OUTPUT: H-Output-1
** 
*Output, history, variable=PRESELECT
*End Step
