1

   Abaqus 2025                                  Date 03-Nov-2025   Time 13:51:44
   For use by TEXAS A_M UNIVERSITY SYSTEM under license from Dassault Systemes or its subsidiary.

                                                                                 
                                                                                 
 STEP    1     INCREMENT     1     STEP TIME    0.00    


                        S T E P       1     C O U P L E D - T E M P E R A T U R E - D I S P L A C E M E N T   A N A L Y S I S


                                                                                          

     AUTOMATIC TIME CONTROL WITH -
          A SUGGESTED INITIAL TIME INCREMENT OF                0.200    
          AND A TOTAL TIME PERIOD OF                            4.00    
          THE MINIMUM TIME INCREMENT ALLOWED IS                4.000E-05
          THE MAXIMUM TIME INCREMENT ALLOWED IS                0.200    

          CREEP AND SWELLING EFFECTS ARE OMITTED IN THIS STEP

     THE SIZE OF THE TIME INCREMENT IS CONTROLLED BY -
          THE TEMPERATURE CHANGE PER INCREMENT NOT EXCEEDING            5.00    
          THE RATE DEPENDENCY WILL BE CONSIDERED IN THIS STEP

          CREEP AND SWELLING EFFECTS WILL BE IGNORED.

 CONVERGENCE TOLERANCE PARAMETERS FOR FORCE    
     CRITERION FOR RESIDUAL FORCE     FOR A NONLINEAR PROBLEM          5.000E-03
     CRITERION FOR DISP.    CORRECTION IN A NONLINEAR PROBLEM          1.000E-02
     INITIAL VALUE OF TIME AVERAGE FORCE                               1.000E-02
     AVERAGE FORCE     IS TIME AVERAGE FORCE    
     ALTERNATE CRIT. FOR RESIDUAL FORCE     FOR A NONLINEAR PROBLEM    2.000E-02
     CRITERION FOR ZERO FORCE     RELATIVE TO TIME AVRG. FORCE         1.000E-05
     CRITERION FOR RESIDUAL FORCE     WHEN THERE IS ZERO FLUX          1.000E-05
     CRITERION FOR DISP.    CORRECTION WHEN THERE IS ZERO FLUX         1.000E-03
     CRITERION FOR RESIDUAL FORCE     FOR A LINEAR INCREMENT           1.000E-08
     FIELD CONVERSION RATIO                                             1.00    
     CRITERION FOR ZERO FORCE     REL. TO TIME AVRG. MAX. FORCE        1.000E-05
     CRITERION FOR ZERO DISP.    RELATIVE TO CHARACTERISTIC LENGTH     1.000E-08

 CONVERGENCE TOLERANCE PARAMETERS FOR HEAT FLUX
     CRITERION FOR RESIDUAL HEAT FLUX FOR A NONLINEAR PROBLEM          5.000E-03
     CRITERION FOR TEMP.    CORRECTION IN A NONLINEAR PROBLEM          1.000E-02
     INITIAL VALUE OF TIME AVERAGE HEAT FLUX                           1.000E-02
     AVERAGE HEAT FLUX IS TIME AVERAGE HEAT FLUX
     ALTERNATE CRIT. FOR RESIDUAL HEAT FLUX FOR A NONLINEAR PROBLEM    2.000E-02
     CRITERION FOR ZERO HEAT FLUX RELATIVE TO TIME AVRG. HEAT FLUX     1.000E-05
     CRITERION FOR RESIDUAL HEAT FLUX WHEN THERE IS ZERO FLUX          1.000E-05
     CRITERION FOR TEMP.    CORRECTION WHEN THERE IS ZERO FLUX         1.000E-03
     CRITERION FOR RESIDUAL HEAT FLUX FOR A LINEAR INCREMENT           1.000E-08
     FIELD CONVERSION RATIO                                             1.00    
     CRITERION FOR ZERO HEAT FLUX REL. TO TIME AVRG. MAX. HEAT FLUX    1.000E-05

     VOLUMETRIC STRAIN COMPATIBILITY TOLERANCE FOR HYBRID SOLIDS       1.000E-05
     AXIAL STRAIN COMPATIBILITY TOLERANCE FOR HYBRID BEAMS             1.000E-05
     TRANS. SHEAR STRAIN COMPATIBILITY TOLERANCE FOR HYBRID BEAMS      1.000E-05
     SOFT CONTACT CONSTRAINT COMPATIBILITY TOLERANCE FOR P>P0          5.000E-03
     SOFT CONTACT CONSTRAINT COMPATIBILITY TOLERANCE FOR P=0.0         0.100    
     CONTACT FORCE ERROR TOLERANCE FOR CONVERT SDI=YES                 1.00    
     DISPLACEMENT COMPATIBILITY TOLERANCE FOR DCOUP ELEMENTS           1.000E-05
     ROTATION COMPATIBILITY TOLERANCE FOR DCOUP ELEMENTS               1.000E-05

 EQUILIBRIUM WILL BE CHECKED FOR SEVERE DISCONTINUITY ITERATIONS

 TIME INCREMENTATION CONTROL PARAMETERS:
     FIRST EQUILIBRIUM ITERATION FOR CONSECUTIVE DIVERGENCE CHECK              4
     EQUILIBRIUM ITERATION AT WHICH LOG. CONVERGENCE RATE CHECK BEGINS         8
     EQUILIBRIUM ITERATION AFTER WHICH ALTERNATE RESIDUAL IS USED              9
     MAXIMUM EQUILIBRIUM ITERATIONS ALLOWED                                   16
     EQUILIBRIUM ITERATION COUNT FOR CUT-BACK IN NEXT INCREMENT               10
     MAXIMUM EQUILIB. ITERS IN TWO INCREMENTS FOR TIME INCREMENT INCREASE      4
     MAXIMUM ITERATIONS FOR SEVERE DISCONTINUITIES                            50
     MAXIMUM ATTEMPTS ALLOWED IN AN INCREMENT                                  5
     MAXIMUM DISCON. ITERS IN TWO INCREMENTS FOR TIME INCREMENT INCREASE      50
     MAXIMUM CONTACT AUGMENTATIONS FOR *SURFACE BEHAVIOR,AUGMENTED LAGRANGE   50
     CONSECUTIVE INCS MEETING TIME INTEG. TOL. FOR TIME INC. INCREASE          3
     CUT-BACK FACTOR AFTER DIVERGENCE                                 0.2500    
     CUT-BACK FACTOR FOR TOO SLOW CONVERGENCE                         0.5000    
     CUT-BACK FACTOR AFTER TOO MANY EQUILIBRIUM ITERATIONS            0.7500    
     CUT-BACK FACTOR AFTER TOO MANY SEVERE DISCONTINUITY ITERATIONS   0.2500    
     CUT-BACK FACTOR AFTER PROBLEMS IN ELEMENT ASSEMBLY               0.2500    
     INCREASE FACTOR AFTER TWO INCREMENTS THAT CONVERGE QUICKLY        1.500    
     MAX. TIME INCREMENT INCREASE FACTOR ALLOWED                       1.500    
     MAX. TIME INCREMENT INCREASE FACTOR ALLOWED (DYNAMICS)            1.250    
     MAX. TIME INCREMENT INCREASE FACTOR ALLOWED (DIFFUSION)           2.000    
     MINIMUM TIME INCREMENT RATIO FOR EXTRAPOLATION TO OCCUR          0.1000    
     CUT-BACK FACTOR WHEN TIME INTEGRATION ACCURACY TOL. EXCEEDED     0.8500    
     MAX. RATIO OF TIME INTEG. MEASURE TO TOL. FOR TIME INC. INCREASE 0.7500    
     INCREASE FACTOR FOR TIME INCREMENT WHEN POSSIBLE                 0.8000    
     MIN. TIME INC. INCREASE FACTOR IN LINEAR TRANSIENT PROBLEMS      0.9500    
     MAX. RATIO OF TIME INCREMENT TO STABILITY LIMIT                   1.000    
     FRACTION OF STABILITY LIMIT FOR NEW TIME INCREMENT               0.9500    
     TIME INCREMENT INCREASE FACTOR BEFORE A TIME POINT                1.000    
     GLOBAL STABILIZATION CONTROL IS NOT USED

          PRINT OF INCREMENT NUMBER, TIME, ETC., EVERY    1  INCREMENTS

     THE MAXIMUM NUMBER OF INCREMENTS IN THIS STEP IS                     100

          UNSYMMETRIC MATRIX STORAGE AND SOLUTION WILL BE USED

     LINEAR EXTRAPOLATION WILL BE USED

     CHARACTERISTIC ELEMENT LENGTH     0.100    

     DETAILS REGARDING ACTUAL SOLUTION WAVEFRONT REQUESTED

     DETAILED OUTPUT OF DIAGNOSTICS TO DATABASE REQUESTED

     PRINT OF INCREMENT NUMBER, TIME, ETC., TO THE MESSAGE FILE EVERY     1  INCREMENTS

     COLLECTING MODEL CONSTRAINT INFORMATION FOR OVERCONSTRAINT CHECKS

     COLLECTING STEP CONSTRAINT INFORMATION FOR OVERCONSTRAINT CHECKS


  INCREMENT     1 STARTS. ATTEMPT NUMBER  1, TIME INCREMENT  0.200    
 
	UNSYMMETRIC PURE THREAD-BASED DIRECT SPARSE SOLVER RUNNING ON
 	1 HOST x 1 MPI RANK PER HOST x 1 THREAD PER RANK
        NUMBER OF EQUATIONS:  5324
        NUMBER OF RHS:        1
        NUMBER OF FLOPS:      1.425e+09
        SOLVER ELAPSED TIME:  117ms
 

 ***WARNING: SOLVER PROBLEM. NUMERICAL SINGULARITY WHEN PROCESSING NODE 
             CUBE-1.617 D.O.F. 1 RATIO = 100.E+09     .
 

 ***WARNING: SOLVER PROBLEM. NUMERICAL SINGULARITY WHEN PROCESSING NODE 
             CUBE-1.607 D.O.F. 1 RATIO = 100.E+09     .
 

 ***WARNING: SOLVER PROBLEM. NUMERICAL SINGULARITY WHEN PROCESSING NODE 
             CUBE-1.607 D.O.F. 3 RATIO = 100.E+09     .
 

 ***WARNING: SOLVER PROBLEM. NUMERICAL SINGULARITY WHEN PROCESSING NODE 
             CUBE-1.606 D.O.F. 1 RATIO = 10.E+12     .
 

 ***WARNING: SOLVER PROBLEM. NUMERICAL SINGULARITY WHEN PROCESSING NODE 
             CUBE-1.606 D.O.F. 2 RATIO = 10.E+12     .
 

 ***WARNING: SOLVER PROBLEM. NUMERICAL SINGULARITY WHEN PROCESSING NODE 
             CUBE-1.606 D.O.F. 3 RATIO = 10.E+12     .

               CONVERGENCE CHECKS FOR EQUILIBRIUM ITERATION     1


 AVERAGE FORCE                      0.131       TIME AVG. FORCE       0.131    
 LARGEST SCALED RESIDUAL FORCE     -1.643E-14   AT NODE        308   DOF  1
   INSTANCE: CUBE-1                                                                          
  CORRESPONDING RESIDUAL FORCE     -1.643E-14
 LARGEST INCREMENT OF DISP.        -2.867E-09   AT NODE        121   DOF  3
   INSTANCE: CUBE-1                                                                          
 LARGEST CORRECTION TO DISP.       -2.867E-09   AT NODE        121   DOF  3
   INSTANCE: CUBE-1                                                                          
          THE FORCE     EQUILIBRIUM RESPONSE WAS LINEAR IN THIS INCREMENT

 AVERAGE HEAT FLUX                  0.374       TIME AVG. HEAT FLUX   0.374    
 LARGEST RESIDUAL HEAT FLUX        -3.786E-13   AT NODE         22   DOF 11
   INSTANCE: CUBE-1                                                                          
 LARGEST INCREMENT OF TEMP.         2.616E-03   AT NODE         99   DOF 11
   INSTANCE: CUBE-1                                                                          
 LARGEST CORRECTION TO TEMP.        2.616E-03   AT NODE         99   DOF 11
   INSTANCE: CUBE-1                                                                          
          THE HEAT FLUX EQUILIBRIUM RESPONSE WAS LINEAR IN THIS INCREMENT

 MAXIMUM NON-PRESCRIBED INCREMENT IN TEMPERATURE IS   2.616E-03

 ITERATION SUMMARY FOR THE INCREMENT:   1 TOTAL ITERATIONS, OF WHICH
   0 ARE SEVERE DISCONTINUITY ITERATIONS AND  1 ARE EQUILIBRIUM ITERATIONS.

 TIME INCREMENT COMPLETED  0.200    ,  FRACTION OF STEP COMPLETED  5.000E-02
 STEP TIME COMPLETED       0.200    ,  TOTAL TIME COMPLETED        0.200    


  INCREMENT     2 STARTS. ATTEMPT NUMBER  1, TIME INCREMENT  0.200    
 
	UNSYMMETRIC PURE THREAD-BASED DIRECT SPARSE SOLVER RUNNING ON
 	1 HOST x 1 MPI RANK PER HOST x 1 THREAD PER RANK
        NUMBER OF EQUATIONS:  5324
        NUMBER OF RHS:        1
        NUMBER OF FLOPS:      1.425e+09
        SOLVER ELAPSED TIME:  8ms

               CONVERGENCE CHECKS FOR EQUILIBRIUM ITERATION     1


 AVERAGE FORCE                      0.254       TIME AVG. FORCE       0.193    
 LARGEST SCALED RESIDUAL FORCE      5.995E-15   AT NODE        263   DOF  1
   INSTANCE: CUBE-1                                                                          
  CORRESPONDING RESIDUAL FORCE      5.995E-15
 LARGEST INCREMENT OF DISP.        -2.790E-09   AT NODE        121   DOF  3
   INSTANCE: CUBE-1                                                                          
 LARGEST CORRECTION TO DISP.        1.032E-09   AT NODE        121   DOF  2
   INSTANCE: CUBE-1                                                                          
          THE FORCE     EQUILIBRIUM RESPONSE WAS LINEAR IN THIS INCREMENT

 AVERAGE HEAT FLUX                  0.738       TIME AVG. HEAT FLUX   0.556    
 LARGEST RESIDUAL HEAT FLUX         2.766E-13   AT NODE        583   DOF 11
   INSTANCE: CUBE-1                                                                          
 LARGEST INCREMENT OF TEMP.         2.604E-03   AT NODE         88   DOF 11
   INSTANCE: CUBE-1                                                                          
 LARGEST CORRECTION TO TEMP.       -5.339E-04   AT NODE       1331   DOF 11
   INSTANCE: CUBE-1                                                                          
          THE HEAT FLUX EQUILIBRIUM RESPONSE WAS LINEAR IN THIS INCREMENT

 MAXIMUM NON-PRESCRIBED INCREMENT IN TEMPERATURE IS   2.604E-03

 ITERATION SUMMARY FOR THE INCREMENT:   1 TOTAL ITERATIONS, OF WHICH
   0 ARE SEVERE DISCONTINUITY ITERATIONS AND  1 ARE EQUILIBRIUM ITERATIONS.

 TIME INCREMENT COMPLETED  0.200    ,  FRACTION OF STEP COMPLETED  0.100    
 STEP TIME COMPLETED       0.400    ,  TOTAL TIME COMPLETED        0.400    


  INCREMENT     3 STARTS. ATTEMPT NUMBER  1, TIME INCREMENT  0.200    
 
	UNSYMMETRIC PURE THREAD-BASED DIRECT SPARSE SOLVER RUNNING ON
 	1 HOST x 1 MPI RANK PER HOST x 1 THREAD PER RANK
        NUMBER OF EQUATIONS:  5324
        NUMBER OF RHS:        1
        NUMBER OF FLOPS:      1.425e+09
        SOLVER ELAPSED TIME:  8ms

               CONVERGENCE CHECKS FOR EQUILIBRIUM ITERATION     1


 AVERAGE FORCE                      0.372       TIME AVG. FORCE       0.252    
 LARGEST SCALED RESIDUAL FORCE     -4.108E-15   AT NODE       1231   DOF  1
   INSTANCE: CUBE-1                                                                          
  CORRESPONDING RESIDUAL FORCE     -4.108E-15
 LARGEST INCREMENT OF DISP.        -2.780E-09   AT NODE        121   DOF  3
   INSTANCE: CUBE-1                                                                          
 LARGEST CORRECTION TO DISP.        9.722E-10   AT NODE        121   DOF  2
   INSTANCE: CUBE-1                                                                          
          THE FORCE     EQUILIBRIUM RESPONSE WAS LINEAR IN THIS INCREMENT

 AVERAGE HEAT FLUX                  0.740       TIME AVG. HEAT FLUX   0.617    
 LARGEST RESIDUAL HEAT FLUX         3.484E-13   AT NODE        176   DOF 11
   INSTANCE: CUBE-1                                                                          
 LARGEST INCREMENT OF TEMP.         2.592E-03   AT NODE         55   DOF 11
   INSTANCE: CUBE-1                                                                          
 LARGEST CORRECTION TO TEMP.       -5.315E-04   AT NODE       1331   DOF 11
   INSTANCE: CUBE-1                                                                          
          THE HEAT FLUX EQUILIBRIUM RESPONSE WAS LINEAR IN THIS INCREMENT

 MAXIMUM NON-PRESCRIBED INCREMENT IN TEMPERATURE IS   2.592E-03

 ITERATION SUMMARY FOR THE INCREMENT:   1 TOTAL ITERATIONS, OF WHICH
   0 ARE SEVERE DISCONTINUITY ITERATIONS AND  1 ARE EQUILIBRIUM ITERATIONS.

 TIME INCREMENT COMPLETED  0.200    ,  FRACTION OF STEP COMPLETED  0.150    
 STEP TIME COMPLETED       0.600    ,  TOTAL TIME COMPLETED        0.600    


  INCREMENT     4 STARTS. ATTEMPT NUMBER  1, TIME INCREMENT  0.200    
 
	UNSYMMETRIC PURE THREAD-BASED DIRECT SPARSE SOLVER RUNNING ON
 	1 HOST x 1 MPI RANK PER HOST x 1 THREAD PER RANK
        NUMBER OF EQUATIONS:  5324
        NUMBER OF RHS:        1
        NUMBER OF FLOPS:      1.425e+09
        SOLVER ELAPSED TIME:  7ms

               CONVERGENCE CHECKS FOR EQUILIBRIUM ITERATION     1


 AVERAGE FORCE                      0.488       TIME AVG. FORCE       0.311    
 LARGEST SCALED RESIDUAL FORCE     -6.217E-15   AT NODE        384   DOF  1
   INSTANCE: CUBE-1                                                                          
  CORRESPONDING RESIDUAL FORCE     -6.217E-15
 LARGEST INCREMENT OF DISP.        -2.744E-09   AT NODE        121   DOF  3
   INSTANCE: CUBE-1                                                                          
 LARGEST CORRECTION TO DISP.        1.091E-09   AT NODE        121   DOF  1
   INSTANCE: CUBE-1                                                                          
          THE FORCE     EQUILIBRIUM RESPONSE WAS LINEAR IN THIS INCREMENT

 AVERAGE HEAT FLUX                  0.638       TIME AVG. HEAT FLUX   0.622    
 LARGEST RESIDUAL HEAT FLUX         3.992E-13   AT NODE        990   DOF 11
   INSTANCE: CUBE-1                                                                          
 LARGEST INCREMENT OF TEMP.         2.581E-03   AT NODE         44   DOF 11
   INSTANCE: CUBE-1                                                                          
 LARGEST CORRECTION TO TEMP.       -5.290E-04   AT NODE       1331   DOF 11
   INSTANCE: CUBE-1                                                                          
          THE HEAT FLUX EQUILIBRIUM RESPONSE WAS LINEAR IN THIS INCREMENT

 MAXIMUM NON-PRESCRIBED INCREMENT IN TEMPERATURE IS   2.581E-03

 ITERATION SUMMARY FOR THE INCREMENT:   1 TOTAL ITERATIONS, OF WHICH
   0 ARE SEVERE DISCONTINUITY ITERATIONS AND  1 ARE EQUILIBRIUM ITERATIONS.

 TIME INCREMENT COMPLETED  0.200    ,  FRACTION OF STEP COMPLETED  0.200    
 STEP TIME COMPLETED       0.800    ,  TOTAL TIME COMPLETED        0.800    


  INCREMENT     5 STARTS. ATTEMPT NUMBER  1, TIME INCREMENT  0.200    
 
	UNSYMMETRIC PURE THREAD-BASED DIRECT SPARSE SOLVER RUNNING ON
 	1 HOST x 1 MPI RANK PER HOST x 1 THREAD PER RANK
        NUMBER OF EQUATIONS:  5324
        NUMBER OF RHS:        1
        NUMBER OF FLOPS:      1.425e+09
        SOLVER ELAPSED TIME:  8ms

               CONVERGENCE CHECKS FOR EQUILIBRIUM ITERATION     1


 AVERAGE FORCE                      0.606       TIME AVG. FORCE       0.370    
 LARGEST SCALED RESIDUAL FORCE      8.882E-15   AT NODE        274   DOF  1
   INSTANCE: CUBE-1                                                                          
  CORRESPONDING RESIDUAL FORCE      8.882E-15
 LARGEST INCREMENT OF DISP.         2.844E-09   AT NODE         77   DOF  2
   INSTANCE: CUBE-1                                                                          
 LARGEST CORRECTION TO DISP.        1.086E-09   AT NODE        121   DOF  1
   INSTANCE: CUBE-1                                                                          
          THE FORCE     EQUILIBRIUM RESPONSE WAS LINEAR IN THIS INCREMENT

 AVERAGE HEAT FLUX                  0.639       TIME AVG. HEAT FLUX   0.626    
 LARGEST RESIDUAL HEAT FLUX         4.191E-13   AT NODE        429   DOF 11
   INSTANCE: CUBE-1                                                                          
 LARGEST INCREMENT OF TEMP.         2.569E-03   AT NODE         44   DOF 11
   INSTANCE: CUBE-1                                                                          
 LARGEST CORRECTION TO TEMP.       -5.266E-04   AT NODE       1331   DOF 11
   INSTANCE: CUBE-1                                                                          
          THE HEAT FLUX EQUILIBRIUM RESPONSE WAS LINEAR IN THIS INCREMENT

 MAXIMUM NON-PRESCRIBED INCREMENT IN TEMPERATURE IS   2.569E-03

 ITERATION SUMMARY FOR THE INCREMENT:   1 TOTAL ITERATIONS, OF WHICH
   0 ARE SEVERE DISCONTINUITY ITERATIONS AND  1 ARE EQUILIBRIUM ITERATIONS.

 TIME INCREMENT COMPLETED  0.200    ,  FRACTION OF STEP COMPLETED  0.250    
 STEP TIME COMPLETED        1.00    ,  TOTAL TIME COMPLETED         1.00    


  INCREMENT     6 STARTS. ATTEMPT NUMBER  1, TIME INCREMENT  0.200    
 
	UNSYMMETRIC PURE THREAD-BASED DIRECT SPARSE SOLVER RUNNING ON
 	1 HOST x 1 MPI RANK PER HOST x 1 THREAD PER RANK
        NUMBER OF EQUATIONS:  5324
        NUMBER OF RHS:        1
        NUMBER OF FLOPS:      1.425e+09
        SOLVER ELAPSED TIME:  8ms

               CONVERGENCE CHECKS FOR EQUILIBRIUM ITERATION     1


 AVERAGE FORCE                      0.721       TIME AVG. FORCE       0.429    
 LARGEST SCALED RESIDUAL FORCE     -6.661E-15   AT NODE        180   DOF  3
   INSTANCE: CUBE-1                                                                          
  CORRESPONDING RESIDUAL FORCE     -6.661E-15
 LARGEST INCREMENT OF DISP.         2.986E-09   AT NODE         77   DOF  2
   INSTANCE: CUBE-1                                                                          
 LARGEST CORRECTION TO DISP.       -4.342E-10   AT NODE          1   DOF  1
   INSTANCE: CUBE-1                                                                          
          THE FORCE     EQUILIBRIUM RESPONSE WAS LINEAR IN THIS INCREMENT

 AVERAGE HEAT FLUX                  0.562       TIME AVG. HEAT FLUX   0.615    
 LARGEST RESIDUAL HEAT FLUX         4.670E-13   AT NODE         88   DOF 11
   INSTANCE: CUBE-1                                                                          
 LARGEST INCREMENT OF TEMP.         2.587E-03   AT NODE         34   DOF 11
   INSTANCE: CUBE-1                                                                          
 LARGEST CORRECTION TO TEMP.       -2.732E-04   AT NODE        121   DOF 11
   INSTANCE: CUBE-1                                                                          
          THE HEAT FLUX EQUILIBRIUM RESPONSE WAS LINEAR IN THIS INCREMENT

 MAXIMUM NON-PRESCRIBED INCREMENT IN TEMPERATURE IS   2.587E-03

 ITERATION SUMMARY FOR THE INCREMENT:   1 TOTAL ITERATIONS, OF WHICH
   0 ARE SEVERE DISCONTINUITY ITERATIONS AND  1 ARE EQUILIBRIUM ITERATIONS.

 TIME INCREMENT COMPLETED  0.200    ,  FRACTION OF STEP COMPLETED  0.300    
 STEP TIME COMPLETED        1.20    ,  TOTAL TIME COMPLETED         1.20    


  INCREMENT     7 STARTS. ATTEMPT NUMBER  1, TIME INCREMENT  0.200    
 
	UNSYMMETRIC PURE THREAD-BASED DIRECT SPARSE SOLVER RUNNING ON
 	1 HOST x 1 MPI RANK PER HOST x 1 THREAD PER RANK
        NUMBER OF EQUATIONS:  5324
        NUMBER OF RHS:        1
        NUMBER OF FLOPS:      1.425e+09
        SOLVER ELAPSED TIME:  8ms

               CONVERGENCE CHECKS FOR EQUILIBRIUM ITERATION     1


 AVERAGE FORCE                      0.825       TIME AVG. FORCE       0.485    
 LARGEST SCALED RESIDUAL FORCE      5.773E-15   AT NODE        169   DOF  3
   INSTANCE: CUBE-1                                                                          
  CORRESPONDING RESIDUAL FORCE      5.773E-15
 LARGEST INCREMENT OF DISP.        -2.930E-09   AT NODE        111   DOF  3
   INSTANCE: CUBE-1                                                                          
 LARGEST CORRECTION TO DISP.       -1.130E-09   AT NODE        111   DOF  1
   INSTANCE: CUBE-1                                                                          
          THE FORCE     EQUILIBRIUM RESPONSE WAS LINEAR IN THIS INCREMENT

 AVERAGE HEAT FLUX                  0.568       TIME AVG. HEAT FLUX   0.608    
 LARGEST RESIDUAL HEAT FLUX         1.012E-12   AT NODE        110   DOF 11
   INSTANCE: CUBE-1                                                                          
 LARGEST INCREMENT OF TEMP.         2.575E-03   AT NODE         34   DOF 11
   INSTANCE: CUBE-1                                                                          
 LARGEST CORRECTION TO TEMP.       -5.338E-04   AT NODE        120   DOF 11
   INSTANCE: CUBE-1                                                                          
          THE HEAT FLUX EQUILIBRIUM RESPONSE WAS LINEAR IN THIS INCREMENT

 MAXIMUM NON-PRESCRIBED INCREMENT IN TEMPERATURE IS   2.575E-03

 ITERATION SUMMARY FOR THE INCREMENT:   1 TOTAL ITERATIONS, OF WHICH
   0 ARE SEVERE DISCONTINUITY ITERATIONS AND  1 ARE EQUILIBRIUM ITERATIONS.

 TIME INCREMENT COMPLETED  0.200    ,  FRACTION OF STEP COMPLETED  0.350    
 STEP TIME COMPLETED        1.40    ,  TOTAL TIME COMPLETED         1.40    


  INCREMENT     8 STARTS. ATTEMPT NUMBER  1, TIME INCREMENT  0.200    
 
	UNSYMMETRIC PURE THREAD-BASED DIRECT SPARSE SOLVER RUNNING ON
 	1 HOST x 1 MPI RANK PER HOST x 1 THREAD PER RANK
        NUMBER OF EQUATIONS:  5324
        NUMBER OF RHS:        1
        NUMBER OF FLOPS:      1.425e+09
        SOLVER ELAPSED TIME:  7ms

               CONVERGENCE CHECKS FOR EQUILIBRIUM ITERATION     1


 AVERAGE FORCE                      0.925       TIME AVG. FORCE       0.540    
 LARGEST SCALED RESIDUAL FORCE     -8.216E-15   AT NODE        178   DOF  1
   INSTANCE: CUBE-1                                                                          
  CORRESPONDING RESIDUAL FORCE     -8.216E-15
 LARGEST INCREMENT OF DISP.        -3.003E-09   AT NODE        111   DOF  3
   INSTANCE: CUBE-1                                                                          
 LARGEST CORRECTION TO DISP.       -1.162E-09   AT NODE          1   DOF  1
   INSTANCE: CUBE-1                                                                          
          THE FORCE     EQUILIBRIUM RESPONSE WAS LINEAR IN THIS INCREMENT

 AVERAGE HEAT FLUX                  0.569       TIME AVG. HEAT FLUX   0.603    
 LARGEST RESIDUAL HEAT FLUX         1.091E-12   AT NODE         33   DOF 11
   INSTANCE: CUBE-1                                                                          
 LARGEST INCREMENT OF TEMP.         2.563E-03   AT NODE         56   DOF 11
   INSTANCE: CUBE-1                                                                          
 LARGEST CORRECTION TO TEMP.       -5.314E-04   AT NODE        120   DOF 11
   INSTANCE: CUBE-1                                                                          
          THE HEAT FLUX EQUILIBRIUM RESPONSE WAS LINEAR IN THIS INCREMENT

 MAXIMUM NON-PRESCRIBED INCREMENT IN TEMPERATURE IS   2.563E-03

 ITERATION SUMMARY FOR THE INCREMENT:   1 TOTAL ITERATIONS, OF WHICH
   0 ARE SEVERE DISCONTINUITY ITERATIONS AND  1 ARE EQUILIBRIUM ITERATIONS.

 TIME INCREMENT COMPLETED  0.200    ,  FRACTION OF STEP COMPLETED  0.400    
 STEP TIME COMPLETED        1.60    ,  TOTAL TIME COMPLETED         1.60    


  INCREMENT     9 STARTS. ATTEMPT NUMBER  1, TIME INCREMENT  0.200    
 
	UNSYMMETRIC PURE THREAD-BASED DIRECT SPARSE SOLVER RUNNING ON
 	1 HOST x 1 MPI RANK PER HOST x 1 THREAD PER RANK
        NUMBER OF EQUATIONS:  5324
        NUMBER OF RHS:        1
        NUMBER OF FLOPS:      1.425e+09
        SOLVER ELAPSED TIME:  9ms

               CONVERGENCE CHECKS FOR EQUILIBRIUM ITERATION     1


 AVERAGE FORCE                       1.03       TIME AVG. FORCE       0.594    
 LARGEST SCALED RESIDUAL FORCE     -9.548E-15   AT NODE        215   DOF  3
   INSTANCE: CUBE-1                                                                          
  CORRESPONDING RESIDUAL FORCE     -9.548E-15
 LARGEST INCREMENT OF DISP.        -3.030E-09   AT NODE        111   DOF  3
   INSTANCE: CUBE-1                                                                          
 LARGEST CORRECTION TO DISP.       -1.032E-09   AT NODE          1   DOF  1
   INSTANCE: CUBE-1                                                                          
          THE FORCE     EQUILIBRIUM RESPONSE WAS LINEAR IN THIS INCREMENT

 AVERAGE HEAT FLUX                  0.504       TIME AVG. HEAT FLUX   0.592    
 LARGEST RESIDUAL HEAT FLUX         1.115E-12   AT NODE         44   DOF 11
   INSTANCE: CUBE-1                                                                          
 LARGEST INCREMENT OF TEMP.         2.552E-03   AT NODE         78   DOF 11
   INSTANCE: CUBE-1                                                                          
 LARGEST CORRECTION TO TEMP.       -5.290E-04   AT NODE         10   DOF 11
   INSTANCE: CUBE-1                                                                          
          THE HEAT FLUX EQUILIBRIUM RESPONSE WAS LINEAR IN THIS INCREMENT

 MAXIMUM NON-PRESCRIBED INCREMENT IN TEMPERATURE IS   2.552E-03

 ITERATION SUMMARY FOR THE INCREMENT:   1 TOTAL ITERATIONS, OF WHICH
   0 ARE SEVERE DISCONTINUITY ITERATIONS AND  1 ARE EQUILIBRIUM ITERATIONS.

 TIME INCREMENT COMPLETED  0.200    ,  FRACTION OF STEP COMPLETED  0.450    
 STEP TIME COMPLETED        1.80    ,  TOTAL TIME COMPLETED         1.80    


  INCREMENT    10 STARTS. ATTEMPT NUMBER  1, TIME INCREMENT  0.200    
 
	UNSYMMETRIC PURE THREAD-BASED DIRECT SPARSE SOLVER RUNNING ON
 	1 HOST x 1 MPI RANK PER HOST x 1 THREAD PER RANK
        NUMBER OF EQUATIONS:  5324
        NUMBER OF RHS:        1
        NUMBER OF FLOPS:      1.425e+09
        SOLVER ELAPSED TIME:  11ms

               CONVERGENCE CHECKS FOR EQUILIBRIUM ITERATION     1


 AVERAGE FORCE                       1.13       TIME AVG. FORCE       0.647    
 LARGEST SCALED RESIDUAL FORCE     -1.155E-14   AT NODE        178   DOF  1
   INSTANCE: CUBE-1                                                                          
  CORRESPONDING RESIDUAL FORCE     -1.155E-14
 LARGEST INCREMENT OF DISP.        -3.753E-09   AT NODE         12   DOF  1
   INSTANCE: CUBE-1                                                                          
 LARGEST CORRECTION TO DISP.       -1.150E-09   AT NODE          1   DOF  1
   INSTANCE: CUBE-1                                                                          
          THE FORCE     EQUILIBRIUM RESPONSE WAS LINEAR IN THIS INCREMENT

 AVERAGE HEAT FLUX                  0.505       TIME AVG. HEAT FLUX   0.584    
 LARGEST RESIDUAL HEAT FLUX         1.127E-12   AT NODE        110   DOF 11
   INSTANCE: CUBE-1                                                                          
 LARGEST INCREMENT OF TEMP.         2.540E-03   AT NODE         67   DOF 11
   INSTANCE: CUBE-1                                                                          
 LARGEST CORRECTION TO TEMP.       -5.265E-04   AT NODE         10   DOF 11
   INSTANCE: CUBE-1                                                                          
          THE HEAT FLUX EQUILIBRIUM RESPONSE WAS LINEAR IN THIS INCREMENT

 MAXIMUM NON-PRESCRIBED INCREMENT IN TEMPERATURE IS   2.540E-03

 ITERATION SUMMARY FOR THE INCREMENT:   1 TOTAL ITERATIONS, OF WHICH
   0 ARE SEVERE DISCONTINUITY ITERATIONS AND  1 ARE EQUILIBRIUM ITERATIONS.

 TIME INCREMENT COMPLETED  0.200    ,  FRACTION OF STEP COMPLETED  0.500    
 STEP TIME COMPLETED        2.00    ,  TOTAL TIME COMPLETED         2.00    


  INCREMENT    11 STARTS. ATTEMPT NUMBER  1, TIME INCREMENT  0.200    
 
	UNSYMMETRIC PURE THREAD-BASED DIRECT SPARSE SOLVER RUNNING ON
 	1 HOST x 1 MPI RANK PER HOST x 1 THREAD PER RANK
        NUMBER OF EQUATIONS:  5324
        NUMBER OF RHS:        1
        NUMBER OF FLOPS:      1.425e+09
        SOLVER ELAPSED TIME:  7ms

               CONVERGENCE CHECKS FOR EQUILIBRIUM ITERATION     1


 AVERAGE FORCE                       1.23       TIME AVG. FORCE       0.700    
 LARGEST SCALED RESIDUAL FORCE      7.438E-15   AT NODE        227   DOF  2
   INSTANCE: CUBE-1                                                                          
  CORRESPONDING RESIDUAL FORCE      7.438E-15
 LARGEST INCREMENT OF DISP.        -3.812E-09   AT NODE          1   DOF  1
   INSTANCE: CUBE-1                                                                          
 LARGEST CORRECTION TO DISP.        4.955E-10   AT NODE       1211   DOF  3
   INSTANCE: CUBE-1                                                                          
          THE FORCE     EQUILIBRIUM RESPONSE WAS LINEAR IN THIS INCREMENT

 AVERAGE HEAT FLUX                  0.468       TIME AVG. HEAT FLUX   0.573    
 LARGEST RESIDUAL HEAT FLUX         6.485E-13   AT NODE         34   DOF 11
   INSTANCE: CUBE-1                                                                          
 LARGEST INCREMENT OF TEMP.         2.587E-03   AT NODE       1266   DOF 11
   INSTANCE: CUBE-1                                                                          
 LARGEST CORRECTION TO TEMP.       -2.730E-04   AT NODE        111   DOF 11
   INSTANCE: CUBE-1                                                                          
          THE HEAT FLUX EQUILIBRIUM RESPONSE WAS LINEAR IN THIS INCREMENT

 MAXIMUM NON-PRESCRIBED INCREMENT IN TEMPERATURE IS   2.587E-03

 ITERATION SUMMARY FOR THE INCREMENT:   1 TOTAL ITERATIONS, OF WHICH
   0 ARE SEVERE DISCONTINUITY ITERATIONS AND  1 ARE EQUILIBRIUM ITERATIONS.

 TIME INCREMENT COMPLETED  0.200    ,  FRACTION OF STEP COMPLETED  0.550    
 STEP TIME COMPLETED        2.20    ,  TOTAL TIME COMPLETED         2.20    


  INCREMENT    12 STARTS. ATTEMPT NUMBER  1, TIME INCREMENT  0.200    
 
	UNSYMMETRIC PURE THREAD-BASED DIRECT SPARSE SOLVER RUNNING ON
 	1 HOST x 1 MPI RANK PER HOST x 1 THREAD PER RANK
        NUMBER OF EQUATIONS:  5324
        NUMBER OF RHS:        1
        NUMBER OF FLOPS:      1.425e+09
        SOLVER ELAPSED TIME:  7ms

               CONVERGENCE CHECKS FOR EQUILIBRIUM ITERATION     1


 AVERAGE FORCE                       1.32       TIME AVG. FORCE       0.752    
 LARGEST SCALED RESIDUAL FORCE     -1.021E-14   AT NODE        409   DOF  1
   INSTANCE: CUBE-1                                                                          
  CORRESPONDING RESIDUAL FORCE     -1.021E-14
 LARGEST INCREMENT OF DISP.         3.453E-09   AT NODE       1211   DOF  3
   INSTANCE: CUBE-1                                                                          
 LARGEST CORRECTION TO DISP.       -9.317E-10   AT NODE       1321   DOF  2
   INSTANCE: CUBE-1                                                                          
          THE FORCE     EQUILIBRIUM RESPONSE WAS LINEAR IN THIS INCREMENT

 AVERAGE HEAT FLUX                  0.469       TIME AVG. HEAT FLUX   0.564    
 LARGEST RESIDUAL HEAT FLUX         1.384E-12   AT NODE         45   DOF 11
   INSTANCE: CUBE-1                                                                          
 LARGEST INCREMENT OF TEMP.         2.575E-03   AT NODE       1255   DOF 11
   INSTANCE: CUBE-1                                                                          
 LARGEST CORRECTION TO TEMP.       -5.340E-04   AT NODE        122   DOF 11
   INSTANCE: CUBE-1                                                                          
          THE HEAT FLUX EQUILIBRIUM RESPONSE WAS LINEAR IN THIS INCREMENT

 MAXIMUM NON-PRESCRIBED INCREMENT IN TEMPERATURE IS   2.575E-03

 ITERATION SUMMARY FOR THE INCREMENT:   1 TOTAL ITERATIONS, OF WHICH
   0 ARE SEVERE DISCONTINUITY ITERATIONS AND  1 ARE EQUILIBRIUM ITERATIONS.

 TIME INCREMENT COMPLETED  0.200    ,  FRACTION OF STEP COMPLETED  0.600    
 STEP TIME COMPLETED        2.40    ,  TOTAL TIME COMPLETED         2.40    


  INCREMENT    13 STARTS. ATTEMPT NUMBER  1, TIME INCREMENT  0.200    
 
	UNSYMMETRIC PURE THREAD-BASED DIRECT SPARSE SOLVER RUNNING ON
 	1 HOST x 1 MPI RANK PER HOST x 1 THREAD PER RANK
        NUMBER OF EQUATIONS:  5324
        NUMBER OF RHS:        1
        NUMBER OF FLOPS:      1.425e+09
        SOLVER ELAPSED TIME:  8ms

               CONVERGENCE CHECKS FOR EQUILIBRIUM ITERATION     1


 AVERAGE FORCE                       1.41       TIME AVG. FORCE       0.802    
 LARGEST SCALED RESIDUAL FORCE      1.243E-14   AT NODE        540   DOF  1
   INSTANCE: CUBE-1                                                                          
  CORRESPONDING RESIDUAL FORCE      1.243E-14
 LARGEST INCREMENT OF DISP.         3.650E-09   AT NODE       1211   DOF  3
   INSTANCE: CUBE-1                                                                          
 LARGEST CORRECTION TO DISP.        8.447E-10   AT NODE        111   DOF  1
   INSTANCE: CUBE-1                                                                          
          THE FORCE     EQUILIBRIUM RESPONSE WAS LINEAR IN THIS INCREMENT

 AVERAGE HEAT FLUX                  0.470       TIME AVG. HEAT FLUX   0.557    
 LARGEST RESIDUAL HEAT FLUX         1.449E-12   AT NODE         12   DOF 11
   INSTANCE: CUBE-1                                                                          
 LARGEST INCREMENT OF TEMP.         2.563E-03   AT NODE       1244   DOF 11
   INSTANCE: CUBE-1                                                                          
 LARGEST CORRECTION TO TEMP.       -5.315E-04   AT NODE        122   DOF 11
   INSTANCE: CUBE-1                                                                          
          THE HEAT FLUX EQUILIBRIUM RESPONSE WAS LINEAR IN THIS INCREMENT

 MAXIMUM NON-PRESCRIBED INCREMENT IN TEMPERATURE IS   2.563E-03

 ITERATION SUMMARY FOR THE INCREMENT:   1 TOTAL ITERATIONS, OF WHICH
   0 ARE SEVERE DISCONTINUITY ITERATIONS AND  1 ARE EQUILIBRIUM ITERATIONS.

 TIME INCREMENT COMPLETED  0.200    ,  FRACTION OF STEP COMPLETED  0.650    
 STEP TIME COMPLETED        2.60    ,  TOTAL TIME COMPLETED         2.60    


  INCREMENT    14 STARTS. ATTEMPT NUMBER  1, TIME INCREMENT  0.200    
 
	UNSYMMETRIC PURE THREAD-BASED DIRECT SPARSE SOLVER RUNNING ON
 	1 HOST x 1 MPI RANK PER HOST x 1 THREAD PER RANK
        NUMBER OF EQUATIONS:  5324
        NUMBER OF RHS:        1
        NUMBER OF FLOPS:      1.425e+09
        SOLVER ELAPSED TIME:  7ms

               CONVERGENCE CHECKS FOR EQUILIBRIUM ITERATION     1


 AVERAGE FORCE                       1.50       TIME AVG. FORCE       0.852    
 LARGEST SCALED RESIDUAL FORCE      1.021E-14   AT NODE        530   DOF  3
   INSTANCE: CUBE-1                                                                          
  CORRESPONDING RESIDUAL FORCE      1.021E-14
 LARGEST INCREMENT OF DISP.         3.823E-09   AT NODE       1211   DOF  3
   INSTANCE: CUBE-1                                                                          
 LARGEST CORRECTION TO DISP.        8.969E-10   AT NODE        111   DOF  1
   INSTANCE: CUBE-1                                                                          
          THE FORCE     EQUILIBRIUM RESPONSE WAS LINEAR IN THIS INCREMENT

 AVERAGE HEAT FLUX                  0.438       TIME AVG. HEAT FLUX   0.549    
 LARGEST RESIDUAL HEAT FLUX         1.489E-12   AT NODE         34   DOF 11
   INSTANCE: CUBE-1                                                                          
 LARGEST INCREMENT OF TEMP.         2.552E-03   AT NODE       1244   DOF 11
   INSTANCE: CUBE-1                                                                          
 LARGEST CORRECTION TO TEMP.       -5.291E-04   AT NODE        122   DOF 11
   INSTANCE: CUBE-1                                                                          
          THE HEAT FLUX EQUILIBRIUM RESPONSE WAS LINEAR IN THIS INCREMENT

 MAXIMUM NON-PRESCRIBED INCREMENT IN TEMPERATURE IS   2.552E-03

 ITERATION SUMMARY FOR THE INCREMENT:   1 TOTAL ITERATIONS, OF WHICH
   0 ARE SEVERE DISCONTINUITY ITERATIONS AND  1 ARE EQUILIBRIUM ITERATIONS.

 TIME INCREMENT COMPLETED  0.200    ,  FRACTION OF STEP COMPLETED  0.700    
 STEP TIME COMPLETED        2.80    ,  TOTAL TIME COMPLETED         2.80    


  INCREMENT    15 STARTS. ATTEMPT NUMBER  1, TIME INCREMENT  0.200    
 
	UNSYMMETRIC PURE THREAD-BASED DIRECT SPARSE SOLVER RUNNING ON
 	1 HOST x 1 MPI RANK PER HOST x 1 THREAD PER RANK
        NUMBER OF EQUATIONS:  5324
        NUMBER OF RHS:        1
        NUMBER OF FLOPS:      1.425e+09
        SOLVER ELAPSED TIME:  7ms

               CONVERGENCE CHECKS FOR EQUILIBRIUM ITERATION     1


 AVERAGE FORCE                       1.59       TIME AVG. FORCE       0.901    
 LARGEST SCALED RESIDUAL FORCE     -9.631E-15   AT NODE        228   DOF  2
   INSTANCE: CUBE-1                                                                          
  CORRESPONDING RESIDUAL FORCE     -9.631E-15
 LARGEST INCREMENT OF DISP.         3.956E-09   AT NODE       1211   DOF  3
   INSTANCE: CUBE-1                                                                          
 LARGEST CORRECTION TO DISP.        1.004E-09   AT NODE        111   DOF  1
   INSTANCE: CUBE-1                                                                          
          THE FORCE     EQUILIBRIUM RESPONSE WAS LINEAR IN THIS INCREMENT

 AVERAGE HEAT FLUX                  0.439       TIME AVG. HEAT FLUX   0.541    
 LARGEST RESIDUAL HEAT FLUX         1.483E-12   AT NODE        100   DOF 11
   INSTANCE: CUBE-1                                                                          
 LARGEST INCREMENT OF TEMP.         2.540E-03   AT NODE       1266   DOF 11
   INSTANCE: CUBE-1                                                                          
 LARGEST CORRECTION TO TEMP.       -5.267E-04   AT NODE        122   DOF 11
   INSTANCE: CUBE-1                                                                          
          THE HEAT FLUX EQUILIBRIUM RESPONSE WAS LINEAR IN THIS INCREMENT

 MAXIMUM NON-PRESCRIBED INCREMENT IN TEMPERATURE IS   2.540E-03

 ITERATION SUMMARY FOR THE INCREMENT:   1 TOTAL ITERATIONS, OF WHICH
   0 ARE SEVERE DISCONTINUITY ITERATIONS AND  1 ARE EQUILIBRIUM ITERATIONS.

 TIME INCREMENT COMPLETED  0.200    ,  FRACTION OF STEP COMPLETED  0.750    
 STEP TIME COMPLETED        3.00    ,  TOTAL TIME COMPLETED         3.00    


  INCREMENT    16 STARTS. ATTEMPT NUMBER  1, TIME INCREMENT  0.200    
 
	UNSYMMETRIC PURE THREAD-BASED DIRECT SPARSE SOLVER RUNNING ON
 	1 HOST x 1 MPI RANK PER HOST x 1 THREAD PER RANK
        NUMBER OF EQUATIONS:  5324
        NUMBER OF RHS:        1
        NUMBER OF FLOPS:      1.425e+09
        SOLVER ELAPSED TIME:  7ms

               CONVERGENCE CHECKS FOR EQUILIBRIUM ITERATION     1


 AVERAGE FORCE                       1.69       TIME AVG. FORCE       0.951    
 LARGEST SCALED RESIDUAL FORCE     -8.438E-15   AT NODE        893   DOF  3
   INSTANCE: CUBE-1                                                                          
  CORRESPONDING RESIDUAL FORCE     -8.438E-15
 LARGEST INCREMENT OF DISP.         3.663E-09   AT NODE       1211   DOF  3
   INSTANCE: CUBE-1                                                                          
 LARGEST CORRECTION TO DISP.       -4.040E-10   AT NODE         11   DOF  1
   INSTANCE: CUBE-1                                                                          
          THE FORCE     EQUILIBRIUM RESPONSE WAS LINEAR IN THIS INCREMENT

 AVERAGE HEAT FLUX                  0.440       TIME AVG. HEAT FLUX   0.535    
 LARGEST RESIDUAL HEAT FLUX         7.307E-13   AT NODE         34   DOF 11
   INSTANCE: CUBE-1                                                                          
 LARGEST INCREMENT OF TEMP.         2.559E-03   AT NODE       1287   DOF 11
   INSTANCE: CUBE-1                                                                          
 LARGEST CORRECTION TO TEMP.       -2.730E-04   AT NODE       1321   DOF 11
   INSTANCE: CUBE-1                                                                          
          THE HEAT FLUX EQUILIBRIUM RESPONSE WAS LINEAR IN THIS INCREMENT

 MAXIMUM NON-PRESCRIBED INCREMENT IN TEMPERATURE IS   2.559E-03

 ITERATION SUMMARY FOR THE INCREMENT:   1 TOTAL ITERATIONS, OF WHICH
   0 ARE SEVERE DISCONTINUITY ITERATIONS AND  1 ARE EQUILIBRIUM ITERATIONS.

 TIME INCREMENT COMPLETED  0.200    ,  FRACTION OF STEP COMPLETED  0.800    
 STEP TIME COMPLETED        3.20    ,  TOTAL TIME COMPLETED         3.20    


  INCREMENT    17 STARTS. ATTEMPT NUMBER  1, TIME INCREMENT  0.200    
 
	UNSYMMETRIC PURE THREAD-BASED DIRECT SPARSE SOLVER RUNNING ON
 	1 HOST x 1 MPI RANK PER HOST x 1 THREAD PER RANK
        NUMBER OF EQUATIONS:  5324
        NUMBER OF RHS:        1
        NUMBER OF FLOPS:      1.425e+09
        SOLVER ELAPSED TIME:  11ms

               CONVERGENCE CHECKS FOR EQUILIBRIUM ITERATION     1


 AVERAGE FORCE                       1.79       TIME AVG. FORCE        1.00    
 LARGEST SCALED RESIDUAL FORCE      1.155E-14   AT NODE       1160   DOF  2
   INSTANCE: CUBE-1                                                                          
  CORRESPONDING RESIDUAL FORCE      1.155E-14
 LARGEST INCREMENT OF DISP.         3.374E-09   AT NODE       1211   DOF  3
   INSTANCE: CUBE-1                                                                          
 LARGEST CORRECTION TO DISP.        1.216E-09   AT NODE       1200   DOF  1
   INSTANCE: CUBE-1                                                                          
          THE FORCE     EQUILIBRIUM RESPONSE WAS LINEAR IN THIS INCREMENT

 AVERAGE HEAT FLUX                  0.440       TIME AVG. HEAT FLUX   0.529    
 LARGEST RESIDUAL HEAT FLUX         1.388E-12   AT NODE       1266   DOF 11
   INSTANCE: CUBE-1                                                                          
 LARGEST INCREMENT OF TEMP.         2.548E-03   AT NODE       1276   DOF 11
   INSTANCE: CUBE-1                                                                          
 LARGEST CORRECTION TO TEMP.       -5.340E-04   AT NODE       1322   DOF 11
   INSTANCE: CUBE-1                                                                          
          THE HEAT FLUX EQUILIBRIUM RESPONSE WAS LINEAR IN THIS INCREMENT

 MAXIMUM NON-PRESCRIBED INCREMENT IN TEMPERATURE IS   2.548E-03

 ITERATION SUMMARY FOR THE INCREMENT:   1 TOTAL ITERATIONS, OF WHICH
   0 ARE SEVERE DISCONTINUITY ITERATIONS AND  1 ARE EQUILIBRIUM ITERATIONS.

 TIME INCREMENT COMPLETED  0.200    ,  FRACTION OF STEP COMPLETED  0.850    
 STEP TIME COMPLETED        3.40    ,  TOTAL TIME COMPLETED         3.40    


  INCREMENT    18 STARTS. ATTEMPT NUMBER  1, TIME INCREMENT  0.200    
 
	UNSYMMETRIC PURE THREAD-BASED DIRECT SPARSE SOLVER RUNNING ON
 	1 HOST x 1 MPI RANK PER HOST x 1 THREAD PER RANK
        NUMBER OF EQUATIONS:  5324
        NUMBER OF RHS:        1
        NUMBER OF FLOPS:      1.425e+09
        SOLVER ELAPSED TIME:  7ms

               CONVERGENCE CHECKS FOR EQUILIBRIUM ITERATION     1


 AVERAGE FORCE                       1.88       TIME AVG. FORCE        1.05    
 LARGEST SCALED RESIDUAL FORCE      1.066E-14   AT NODE       1270   DOF  2
   INSTANCE: CUBE-1                                                                          
  CORRESPONDING RESIDUAL FORCE      1.066E-14
 LARGEST INCREMENT OF DISP.         3.500E-09   AT NODE       1221   DOF  3
   INSTANCE: CUBE-1                                                                          
 LARGEST CORRECTION TO DISP.        1.117E-09   AT NODE       1331   DOF  1
   INSTANCE: CUBE-1                                                                          
          THE FORCE     EQUILIBRIUM RESPONSE WAS LINEAR IN THIS INCREMENT

 AVERAGE HEAT FLUX                  0.441       TIME AVG. HEAT FLUX   0.524    
 LARGEST RESIDUAL HEAT FLUX         1.448E-12   AT NODE       1310   DOF 11
   INSTANCE: CUBE-1                                                                          
 LARGEST INCREMENT OF TEMP.         2.537E-03   AT NODE       1276   DOF 11
   INSTANCE: CUBE-1                                                                          
 LARGEST CORRECTION TO TEMP.       -5.315E-04   AT NODE       1212   DOF 11
   INSTANCE: CUBE-1                                                                          
          THE HEAT FLUX EQUILIBRIUM RESPONSE WAS LINEAR IN THIS INCREMENT

 MAXIMUM NON-PRESCRIBED INCREMENT IN TEMPERATURE IS   2.537E-03

 ITERATION SUMMARY FOR THE INCREMENT:   1 TOTAL ITERATIONS, OF WHICH
   0 ARE SEVERE DISCONTINUITY ITERATIONS AND  1 ARE EQUILIBRIUM ITERATIONS.

 TIME INCREMENT COMPLETED  0.200    ,  FRACTION OF STEP COMPLETED  0.900    
 STEP TIME COMPLETED        3.60    ,  TOTAL TIME COMPLETED         3.60    


  INCREMENT    19 STARTS. ATTEMPT NUMBER  1, TIME INCREMENT  0.200    
 
	UNSYMMETRIC PURE THREAD-BASED DIRECT SPARSE SOLVER RUNNING ON
 	1 HOST x 1 MPI RANK PER HOST x 1 THREAD PER RANK
        NUMBER OF EQUATIONS:  5324
        NUMBER OF RHS:        1
        NUMBER OF FLOPS:      1.425e+09
        SOLVER ELAPSED TIME:  8ms

               CONVERGENCE CHECKS FOR EQUILIBRIUM ITERATION     1


 AVERAGE FORCE                       1.98       TIME AVG. FORCE        1.10    
 LARGEST SCALED RESIDUAL FORCE      1.155E-14   AT NODE        183   DOF  3
   INSTANCE: CUBE-1                                                                          
  CORRESPONDING RESIDUAL FORCE      1.155E-14
 LARGEST INCREMENT OF DISP.         3.579E-09   AT NODE       1221   DOF  3
   INSTANCE: CUBE-1                                                                          
 LARGEST CORRECTION TO DISP.        1.069E-09   AT NODE       1331   DOF  1
   INSTANCE: CUBE-1                                                                          
          THE FORCE     EQUILIBRIUM RESPONSE WAS LINEAR IN THIS INCREMENT

 AVERAGE HEAT FLUX                  0.439       TIME AVG. HEAT FLUX   0.520    
 LARGEST RESIDUAL HEAT FLUX         1.486E-12   AT NODE       1266   DOF 11
   INSTANCE: CUBE-1                                                                          
 LARGEST INCREMENT OF TEMP.         2.525E-03   AT NODE       1276   DOF 11
   INSTANCE: CUBE-1                                                                          
 LARGEST CORRECTION TO TEMP.       -5.291E-04   AT NODE       1322   DOF 11
   INSTANCE: CUBE-1                                                                          
          THE HEAT FLUX EQUILIBRIUM RESPONSE WAS LINEAR IN THIS INCREMENT

 MAXIMUM NON-PRESCRIBED INCREMENT IN TEMPERATURE IS   2.525E-03

 ITERATION SUMMARY FOR THE INCREMENT:   1 TOTAL ITERATIONS, OF WHICH
   0 ARE SEVERE DISCONTINUITY ITERATIONS AND  1 ARE EQUILIBRIUM ITERATIONS.

 TIME INCREMENT COMPLETED  0.200    ,  FRACTION OF STEP COMPLETED  0.950    
 STEP TIME COMPLETED        3.80    ,  TOTAL TIME COMPLETED         3.80    


  INCREMENT    20 STARTS. ATTEMPT NUMBER  1, TIME INCREMENT  0.200    
 
	UNSYMMETRIC PURE THREAD-BASED DIRECT SPARSE SOLVER RUNNING ON
 	1 HOST x 1 MPI RANK PER HOST x 1 THREAD PER RANK
        NUMBER OF EQUATIONS:  5324
        NUMBER OF RHS:        1
        NUMBER OF FLOPS:      1.425e+09
        SOLVER ELAPSED TIME:  88ms
 

 ***WARNING: SOLVER PROBLEM. NUMERICAL SINGULARITY WHEN PROCESSING NODE 
             CUBE-1.617 D.O.F. 1 RATIO = 100.E+09     .
 

 ***WARNING: SOLVER PROBLEM. NUMERICAL SINGULARITY WHEN PROCESSING NODE 
             CUBE-1.607 D.O.F. 1 RATIO = 100.E+09     .
 

 ***WARNING: SOLVER PROBLEM. NUMERICAL SINGULARITY WHEN PROCESSING NODE 
             CUBE-1.607 D.O.F. 3 RATIO = 100.E+09     .
 

 ***WARNING: SOLVER PROBLEM. NUMERICAL SINGULARITY WHEN PROCESSING NODE 
             CUBE-1.606 D.O.F. 1 RATIO = 10.E+12     .
 

 ***WARNING: SOLVER PROBLEM. NUMERICAL SINGULARITY WHEN PROCESSING NODE 
             CUBE-1.606 D.O.F. 2 RATIO = 10.E+12     .
 

 ***WARNING: SOLVER PROBLEM. NUMERICAL SINGULARITY WHEN PROCESSING NODE 
             CUBE-1.606 D.O.F. 3 RATIO = 10.E+12     .

               CONVERGENCE CHECKS FOR EQUILIBRIUM ITERATION     1


 AVERAGE FORCE                       2.08       TIME AVG. FORCE        1.15    
 LARGEST SCALED RESIDUAL FORCE     -1.199E-14   AT NODE        918   DOF  1
   INSTANCE: CUBE-1                                                                          
  CORRESPONDING RESIDUAL FORCE     -1.199E-14
 LARGEST INCREMENT OF DISP.        -3.891E-09   AT NODE        121   DOF  3
   INSTANCE: CUBE-1                                                                          
 LARGEST CORRECTION TO DISP.       -9.982E-10   AT NODE       1221   DOF  2
   INSTANCE: CUBE-1                                                                          
          THE FORCE     EQUILIBRIUM RESPONSE WAS LINEAR IN THIS INCREMENT

 AVERAGE HEAT FLUX                  0.437       TIME AVG. HEAT FLUX   0.516    
 LARGEST RESIDUAL HEAT FLUX        -6.523E-14   AT NODE        349   DOF 11
   INSTANCE: CUBE-1                                                                          
 LARGEST INCREMENT OF TEMP.         2.514E-03   AT NODE       1287   DOF 11
   INSTANCE: CUBE-1                                                                          
 LARGEST CORRECTION TO TEMP.       -5.267E-04   AT NODE       1212   DOF 11
   INSTANCE: CUBE-1                                                                          
          THE HEAT FLUX EQUILIBRIUM RESPONSE WAS LINEAR IN THIS INCREMENT

 MAXIMUM NON-PRESCRIBED INCREMENT IN TEMPERATURE IS   2.514E-03

 ITERATION SUMMARY FOR THE INCREMENT:   1 TOTAL ITERATIONS, OF WHICH
   0 ARE SEVERE DISCONTINUITY ITERATIONS AND  1 ARE EQUILIBRIUM ITERATIONS.

 TIME INCREMENT COMPLETED  0.200    ,  FRACTION OF STEP COMPLETED   1.00    
 STEP TIME COMPLETED        4.00    ,  TOTAL TIME COMPLETED         4.00    


          THE ANALYSIS HAS BEEN COMPLETED



     ANALYSIS SUMMARY:
     TOTAL OF         20  INCREMENTS
                       0  CUTBACKS IN AUTOMATIC INCREMENTATION
                      20  ITERATIONS INCLUDING CONTACT ITERATIONS IF PRESENT
                      20  PASSES THROUGH THE EQUATION SOLVER OF WHICH 
                       2  INVOLVE MATRIX DECOMPOSITION, INCLUDING
                       0  DECOMPOSITION(S) OF THE MASS MATRIX
                       1  REORDERING OF EQUATIONS TO MINIMIZE WAVEFRONT
                       0  ADDITIONAL RESIDUAL EVALUATIONS FOR LINE SEARCHES
                       0  ADDITIONAL OPERATOR EVALUATIONS FOR LINE SEARCHES
                       1  WARNING MESSAGES DURING USER INPUT PROCESSING
                      12  WARNING MESSAGES DURING ANALYSIS
                      12  ANALYSIS WARNINGS ARE NUMERICAL PROBLEM MESSAGES
                       0  ANALYSIS WARNINGS ARE NEGATIVE EIGENVALUE MESSAGES
                       0  ERROR MESSAGES



     JOB TIME SUMMARY
       USER TIME (SEC)      =      3.0    
       SYSTEM TIME (SEC)    =     0.30    
       TOTAL CPU TIME (SEC) =      3.3    
       WALLCLOCK TIME (SEC) =            7
       MEMORY PEAK (GB)     =            0
