*Heading
** Job name: LatticeStructure_NumCF4_CFLen070_SMALen270-Assembly Model name: Model-1
** Generated by: Abaqus/CAE 2025
*Preprint, echo=NO, model=NO, history=NO, contact=NO
**
** PARTS
**
*Part, name=CF_beam
*Node
      1,           0.,           0.,           0.
      2, 0.0700000003,           0.,           0.
      3, 0.0350000001,           0.,           0.
*Element, type=B32
1, 1, 3, 2
*Nset, nset=CF_beam, generate
 1,  3,  1
*Elset, elset=CF_beam
 1,
*Elset, elset=_CF_Full_, internal
 1,
*Surface, type=ELEMENT, name=CF_Full
_CF_Full_, 
** Section: CF_beam  Profile: CF_PROFILE
*Beam Section, elset=CF_beam, material=CF, poisson = 0.28, temperature=GRADIENTS, section=CIRC
0.000785
0.,0.,-1.
*End Part
**  
*Part, name=SMAWire_(Nitinol)
*Node
      1,           0.,           0.,           0.
      2,           0.,  0.048189275,           0.
      3,           0., 0.0963785499,           0.
      4,           0.,  0.144567832,           0.
      5,           0.,    0.1927571,           0.
      6,           0.,  0.240946382,           0.
      7,           0.,  0.289135665,           0.
      8,           0.,  0.337324917,           0.
      9,           0.,    0.3855142,           0.
     10,           0.,  0.433703482,           0.
     11,           0.,  0.481892765,           0.
     12,           0.,  0.530082047,           0.
*Element, type=T3D2T
 1,  1,  2
 2,  2,  3
 3,  3,  4
 4,  4,  5
 5,  5,  6
 6,  6,  7
 7,  7,  8
 8,  8,  9
 9,  9, 10
10, 10, 11
11, 11, 12
*Nset, nset=sma-actuator-p, generate
  1,  12,   1
*Elset, elset=sma-actuator-p, generate
  1,  11,   1
*Elset, elset=_Flux-Surface_, internal, generate
  1,  11,   1
*Surface, type=ELEMENT, name=Flux-Surface
_Flux-Surface_, 
** Section: Actuator
*Solid Section, elset=sma-actuator-p, material=SMA
1.935e-06,
*End Part
**  
*Part, name=SMA_beam
*Node
      1,           0.,           0.,           0.
      2,  0.270000011,           0.,           0.
      3,  0.540000021,           0.,           0.
      4,  0.810000002,           0.,           0.
      5, 0.0540000014,           0.,           0.
      6,  0.108000003,           0.,           0.
      7,        0.162,           0.,           0.
      8,  0.216000006,           0.,           0.
      9,  0.324000001,           0.,           0.
     10,  0.377999991,           0.,           0.
     11,  0.432000011,           0.,           0.
     12,  0.486000001,           0.,           0.
     13,  0.593999982,           0.,           0.
     14,  0.648000002,           0.,           0.
     15,  0.702000022,           0.,           0.
     16,  0.755999982,           0.,           0.
     17, 0.0270000007,           0.,           0.
     18, 0.0810000002,           0.,           0.
     19,  0.135000005,           0.,           0.
     20,   0.18900001,           0.,           0.
** ... 11 like lines cut
*Element, type=B32
1,  1, 17,  5
2,  5, 18,  6
3,  6, 19,  7
4,  7, 20,  8
5,  8, 21,  2
 6,  2, 22,  9
 7,  9, 23, 10
 8, 10, 24, 11
 9, 11, 25, 12
10, 12, 26,  3
11,  3, 27, 13
12, 13, 28, 14
13, 14, 29, 15
14, 15, 30, 16
15, 16, 31,  4
*Nset, nset=SMA_beam, generate
  1,  31,   1
*Elset, elset=SMA_beam, generate
  1,  15,   1
*Elset, elset=_SMA_Full_, internal, generate
  1,  15,   1
*Surface, type=ELEMENT, name=SMA_Full
_SMA_Full_, 
** Section: SMA_beam  Profile: SMA_PROFILE
*Beam Section, elset=SMA_beam, material=NiTi, poisson = 0.3, temperature=GRADIENTS, section=CIRC
0.000785
0.,0.,-1.
*End Part
**  
*Part, name=shade
*Node
      1,           0.,           0.,           0.
      2, 0.0599999987,           0.,           0.
      3, 0.0599999987, 0.0599999987,           0.
      4,           0., 0.0599999987,           0.
      5,           0., -0.0599999987,           0.
      6, 0.0599999987, -0.0599999987,           0.
      7, -0.0599999987,           0.,           0.
      8, -0.0599999987, 0.0599999987,           0.
      9, -0.0599999987, -0.0599999987,           0.
*Element, type=S4R
1, 1, 2, 3, 4
2, 1, 5, 6, 2
3, 7, 1, 4, 8
4, 1, 7, 9, 5
*Nset, nset=whole-shade-p, generate
 1,  9,  1
*Elset, elset=whole-shade-p, generate
 1,  4,  1
** Section: Shade
*Shell Section, elset=whole-shade-p, material=Shade
0.00157, 5
*End Part
**  
**
** ASSEMBLY
**
*Assembly, name=Assembly
**  
*Instance, name=CF_beam-1, part=CF_beam
          0.,           0.,           0.
          0.,           0.,           0.,           0.,          -1.,           0.,          90.
*End Instance
**  
*Instance, name=CF_beam-2, part=CF_beam
*End Instance
**  
*Instance, name=CF_beam-3, part=CF_beam
          0.,           0.,           0.
          0.,           0.,           0.,           0.,           1.,           0.,          90.
*End Instance
**  
*Instance, name=CF_beam-4, part=CF_beam
          0.,           0.,           0.
          0.,           0.,           0.,           0.,           1.,           0.,         180.
*End Instance
**  
*Instance, name=CF_beam-5, part=CF_beam
-0.0435226009489054,         0.27, 0.0180276515827888
-0.0435226009489054,         0.27, 0.0180276515827888, -0.0435226009489054,        -0.73, 0.0180276515827888,          45.
*End Instance
**  
*Instance, name=CF_beam-6, part=CF_beam
0.0180276515827888,         0.27, 0.0435226009489054
0.0180276515827888,         0.27, 0.0435226009489054, 0.0180276515827888,         1.27, 0.0435226009489054,          45.
*End Instance
**  
*Instance, name=CF_beam-7, part=CF_beam
0.0435226009489054,         0.27, -0.0180276515827887
0.0435226009489054,         0.27, -0.0180276515827887, 0.0435226009489054,         1.27, -0.0180276515827887,         135.
*End Instance
**  
*Instance, name=CF_beam-8, part=CF_beam
-0.0180276515827887,         0.27, -0.0435226009489054
-0.0180276515827887,         0.27, -0.0435226009489054, -0.0180276515827887,         1.27, -0.0435226009489054,         225.
*End Instance
**  
*Instance, name=CF_beam-9, part=CF_beam
          0.,         0.54,           0.
          0.,         0.54,           0.,           0.,        -0.46,           0.,          90.
*End Instance
**  
*Instance, name=CF_beam-10, part=CF_beam
          0.,         0.54,           0.
*End Instance
**  
*Instance, name=CF_beam-11, part=CF_beam
          0.,         0.54,           0.
          0.,         0.54,           0.,           0.,         1.54,           0.,          90.
*End Instance
**  
*Instance, name=CF_beam-12, part=CF_beam
          0.,         0.54,           0.
          0.,         0.54,           0.,           0.,         1.54,           0.,         180.
*End Instance
**  
*Instance, name=CF_beam-13, part=CF_beam
-0.0435226009489054,         0.81, 0.0180276515827888
-0.0435226009489054,         0.81, 0.0180276515827888, -0.0435226009489054,        -0.19, 0.0180276515827888,          45.
*End Instance
**  
*Instance, name=CF_beam-14, part=CF_beam
0.0180276515827888,         0.81, 0.0435226009489054
0.0180276515827888,         0.81, 0.0435226009489054, 0.0180276515827888,         1.81, 0.0435226009489054,          45.
*End Instance
**  
*Instance, name=CF_beam-15, part=CF_beam
0.0435226009489054,         0.81, -0.0180276515827887
0.0435226009489054,         0.81, -0.0180276515827887, 0.0435226009489054,         1.81, -0.0180276515827887,         135.
*End Instance
**  
*Instance, name=CF_beam-16, part=CF_beam
-0.0180276515827887,         0.81, -0.0435226009489054
-0.0180276515827887,         0.81, -0.0435226009489054, -0.0180276515827887,         1.81, -0.0435226009489054,         225.
*End Instance
**  
*Instance, name=SMA_beam-1, part=SMA_beam
     -0.0035,           0.,         0.07
     -0.0035,           0.,         0.07,      -0.0035,           0.,         1.07,          90.
*End Instance
**  
*Instance, name=SMA_beam-2, part=SMA_beam
      0.0035,           0.,         0.07
      0.0035,           0.,         0.07,       0.0035,           0.,         1.07,          90.
*End Instance
**  
*Instance, name=SMA_beam-3, part=SMA_beam
        0.07,           0.,       0.0035
        0.07,           0.,       0.0035, 0.647350269189626, 0.577350269189626, 0.580850269189626,         120.
*End Instance
**  
*Instance, name=SMA_beam-4, part=SMA_beam
        0.07,           0.,      -0.0035
        0.07,           0.,      -0.0035, 0.647350269189626, 0.577350269189626, 0.573850269189626,         120.
*End Instance
**  
*Instance, name=SMA_beam-5, part=SMA_beam
0.00350000000000001,           0.,        -0.07
0.00350000000000001,           0.,        -0.07, 0.710606781186548, 0.707106781186548,        -0.07,         180.
*End Instance
**  
*Instance, name=SMA_beam-6, part=SMA_beam
-0.00349999999999999,           0.,        -0.07
-0.00349999999999999,           0.,        -0.07, 0.703606781186548, 0.707106781186548,        -0.07,         180.
*End Instance
**  
*Instance, name=SMA_beam-7, part=SMA_beam
       -0.07,           0., -0.00350000000000001
       -0.07,           0., -0.00350000000000001, 0.507350269189626, 0.577350269189626, -0.580850269189626,         240.
*End Instance
**  
*Instance, name=SMA_beam-8, part=SMA_beam
       -0.07,           0., 0.00349999999999999
       -0.07,           0., 0.00349999999999999, 0.507350269189626, 0.577350269189626, -0.573850269189626,         240.
*End Instance
**  
*Instance, name=SMAWire_(Nitinol), part=SMAWire_(Nitinol)
   0.0494551,     0.265029,    -0.049539
   0.0494551,     0.265029,    -0.049539, -0.503243544256487, 0.817727644256487, 0.574198458610659, 0.0250552951800842
*End Instance
**  
*Instance, name=shade-1, part=shade
        0.07,         0.81,       0.0035
        0.07,         0.81,       0.0035,         1.07,         0.81,       0.0035,          90.
*End Instance
**  
*Instance, name=shade-2, part=shade
     -0.0035,         0.81,         0.07
     -0.0035,         0.81,         0.07,       0.9965,         0.81,         0.07,          90.
*End Instance
**  
*Instance, name=shade-3, part=shade
      0.0035,         0.81,        -0.07
      0.0035,         0.81,        -0.07,       1.0035,         0.81,        -0.07,          90.
*End Instance
**  
*Instance, name=shade-4, part=shade
       -0.07,         0.81,      -0.0035
       -0.07,         0.81,      -0.0035,         0.93,         0.81,      -0.0035,          90.
*End Instance
**  
*Node
      1,           2.,  0.810000002,           2.
*Node
      2, -0.0425987206,  0.270000011, 0.0184103344
*Node
      3, 0.0184103344,  0.270000011, 0.0425987206
*Node
      4, 0.0425987206,  0.270000011, -0.0184103344
*Node
      5, -0.0425987206,  0.810000002, 0.0184103344
*Node
      6, 0.0184103344,  0.810000002, 0.0425987206
*Node
      7, 0.0425987206,  0.810000002, -0.0184103344
*Element, type=CONN3D2
1, 1, SMA_beam-2.4
*Connector Section, elset=Trans_Wire
Axial,
"Datum csys-2",
*Element, type=CONN3D2
2, CF_beam-5.1, CF_beam-6.1
*Connector Section, elset=CFWire-1-Set-1
Translator,
"Datum csys-4",
*Element, type=CONN3D2
3, CF_beam-6.1, CF_beam-7.1
*Connector Section, elset=CFWire-2-Set-1
Translator,
"Datum csys-6",
*Element, type=CONN3D2
4, CF_beam-7.1, CF_beam-8.1
*Connector Section, elset=CFWire-3-Set-1
Translator,
"Datum csys-8",
*Element, type=CONN3D2
5, SMA_beam-2.2, SMA_beam-3.2
*Connector Section, elset=SMAwire_layer-2_beam-1
Translator,
"Datum csys-10",
*Element, type=CONN3D2
6, SMA_beam-4.2, SMA_beam-5.2
*Connector Section, elset=SMAwire_layer-2_beam-2
Translator,
"Datum csys-12",
*Element, type=CONN3D2
7, SMA_beam-6.2, SMA_beam-7.2
*Connector Section, elset=SMAwire_layer-2_beam-3
Translator,
"Datum csys-14",
*Element, type=CONN3D2
8, SMA_beam-8.2, SMA_beam-1.2
*Connector Section, elset=SMAwire_layer-2_beam-4
Translator,
"Datum csys-16",
*Element, type=CONN3D2
9, CF_beam-13.1, CF_beam-14.1
*Connector Section, elset=CFWire-4-Set-1
Translator,
"Datum csys-18",
*Element, type=CONN3D2
10, CF_beam-14.1, CF_beam-15.1
*Connector Section, elset=CFWire-5-Set-1
Translator,
"Datum csys-20",
*Element, type=CONN3D2
11, CF_beam-15.1, CF_beam-16.1
*Connector Section, elset=CFWire-6-Set-1
Translator,
"Datum csys-22",
*Element, type=CONN3D2
12, SMA_beam-2.4, SMA_beam-3.4
*Connector Section, elset=SMAwire_layer-4_beam-1
Translator,
"Datum csys-24",
*Element, type=CONN3D2
13, SMA_beam-4.4, SMA_beam-5.4
*Connector Section, elset=SMAwire_layer-4_beam-2
Translator,
"Datum csys-26",
*Element, type=CONN3D2
14, SMA_beam-6.4, SMA_beam-7.4
*Connector Section, elset=SMAwire_layer-4_beam-3
Translator,
"Datum csys-28",
*Element, type=CONN3D2
15, SMA_beam-8.4, SMA_beam-1.4
*Connector Section, elset=SMAwire_layer-4_beam-4
Translator,
"Datum csys-30",
*Element, type=CONN3D2
16, SMAWire_(Nitinol).12, CF_beam-14.2
*Connector Section, elset=top_beam
Beam,
*Element, type=CONN3D2
17, SMAWire_(Nitinol).1, CF_beam-6.2
*Connector Section, elset=bottom_beam
Beam,
*Nset, nset=All-actuator-elems, instance=SMAWire_(Nitinol), generate
  1,  12,   1
*Elset, elset=All-actuator-elems, instance=SMAWire_(Nitinol), generate
  1,  11,   1
*Nset, nset=CFWire-1-Set-1, instance=CF_beam-5
 1,
*Nset, nset=CFWire-1-Set-1, instance=CF_beam-6
 1,
*Elset, elset=CFWire-1-Set-1
 2,
*Nset, nset=CFWire-2-Set-1, instance=CF_beam-6
 1,
*Nset, nset=CFWire-2-Set-1, instance=CF_beam-7
 1,
*Elset, elset=CFWire-2-Set-1
 3,
*Nset, nset=CFWire-3-Set-1, instance=CF_beam-7
 1,
*Nset, nset=CFWire-3-Set-1, instance=CF_beam-8
 1,
*Elset, elset=CFWire-3-Set-1
 4,
*Nset, nset=CFWire-4-Set-1, instance=CF_beam-13
 1,
*Nset, nset=CFWire-4-Set-1, instance=CF_beam-14
 1,
*Elset, elset=CFWire-4-Set-1
 9,
*Nset, nset=CFWire-5-Set-1, instance=CF_beam-14
 1,
*Nset, nset=CFWire-5-Set-1, instance=CF_beam-15
 1,
*Elset, elset=CFWire-5-Set-1
 10,
*Nset, nset=CFWire-6-Set-1, instance=CF_beam-15
 1,
*Nset, nset=CFWire-6-Set-1, instance=CF_beam-16
 1,
*Elset, elset=CFWire-6-Set-1
 11,
*Nset, nset=CF_b, instance=CF_beam-6
 2,
*Nset, nset=CF_beam-1-layer-1-A, instance=CF_beam-1
 2,
*Nset, nset=CF_beam-1-layer-1-B, instance=SMA_beam-1
 1,
*Nset, nset=CF_beam-2-layer-1-A, instance=CF_beam-2
 2,
*Nset, nset=CF_beam-2-layer-1-B, instance=SMA_beam-3
 1,
*Nset, nset=CF_beam-3-layer-1-A, instance=CF_beam-3
 2,
*Nset, nset=CF_beam-3-layer-1-B, instance=SMA_beam-5
 1,
*Nset, nset=CF_beam-4-layer-1-A, instance=CF_beam-4
 2,
*Nset, nset=CF_beam-4-layer-1-B, instance=SMA_beam-7
 1,
*Nset, nset=CF_beam-5-layer-2-A, instance=CF_beam-5
 2,
*Nset, nset=CF_beam-5-layer-2-B, instance=SMA_beam-2
 2,
*Nset, nset=CF_beam-6-layer-2-A, instance=CF_beam-6
 2,
*Nset, nset=CF_beam-6-layer-2-B, instance=SMA_beam-4
 2,
*Nset, nset=CF_beam-7-layer-2-A, instance=CF_beam-7
 2,
*Nset, nset=CF_beam-7-layer-2-B, instance=SMA_beam-6
 2,
*Nset, nset=CF_beam-8-layer-2-A, instance=CF_beam-8
 2,
*Nset, nset=CF_beam-8-layer-2-B, instance=SMA_beam-8
 2,
*Nset, nset=CF_beam-9-layer-3-A, instance=CF_beam-9
 2,
*Nset, nset=CF_beam-9-layer-3-B, instance=SMA_beam-1
 3,
*Nset, nset=CF_beam-10-layer-3-A, instance=CF_beam-10
 2,
*Nset, nset=CF_beam-10-layer-3-B, instance=SMA_beam-3
 3,
*Nset, nset=CF_beam-11-layer-3-A, instance=CF_beam-11
 2,
*Nset, nset=CF_beam-11-layer-3-B, instance=SMA_beam-5
 3,
*Nset, nset=CF_beam-12-layer-3-A, instance=CF_beam-12
 2,
*Nset, nset=CF_beam-12-layer-3-B, instance=SMA_beam-7
 3,
*Nset, nset=CF_beam-13-layer-4-A, instance=CF_beam-13
 2,
*Nset, nset=CF_beam-13-layer-4-B, instance=SMA_beam-2
 4,
*Nset, nset=CF_beam-14-layer-4-A, instance=CF_beam-14
 2,
*Nset, nset=CF_beam-14-layer-4-B, instance=SMA_beam-4
 4,
*Nset, nset=CF_beam-15-layer-4-A, instance=CF_beam-15
 2,
*Nset, nset=CF_beam-15-layer-4-B, instance=SMA_beam-6
 4,
*Nset, nset=CF_beam-16-layer-4-A, instance=CF_beam-16
 2,
*Nset, nset=CF_beam-16-layer-4-B, instance=SMA_beam-8
 4,
*Nset, nset=CF_t, instance=CF_beam-14
 2,
*Nset, nset="Encastre Points", instance=CF_beam-1
 2,
*Nset, nset="Encastre Points", instance=CF_beam-2
 2,
*Nset, nset="Encastre Points", instance=CF_beam-3
 2,
*Nset, nset="Encastre Points", instance=CF_beam-4
 2,
*Nset, nset="Encastre Points", instance=SMA_beam-1
 1,
*Nset, nset="Encastre Points", instance=SMA_beam-2
 1,
*Nset, nset="Encastre Points", instance=SMA_beam-3
 1,
*Nset, nset="Encastre Points", instance=SMA_beam-4
 1,
*Nset, nset="Encastre Points", instance=SMA_beam-5
 1,
*Nset, nset="Encastre Points", instance=SMA_beam-6
 1,
*Nset, nset="Encastre Points", instance=SMA_beam-7
 1,
*Nset, nset="Encastre Points", instance=SMA_beam-8
 1,
*Nset, nset=Layer-4, instance=SMA_beam-1
 4,
*Nset, nset=Layer-4, instance=SMA_beam-2
 4,
*Nset, nset=Layer-4, instance=SMA_beam-3
 4,
*Nset, nset=Layer-4, instance=SMA_beam-4
 4,
*Nset, nset=Layer-4, instance=SMA_beam-5
 4,
*Nset, nset=Layer-4, instance=SMA_beam-6
 4,
*Nset, nset=Layer-4, instance=SMA_beam-7
 4,
*Nset, nset=Layer-4, instance=SMA_beam-8
 4,
*Nset, nset=SMA_FullAssembly, instance=SMA_beam-1, generate
  1,  31,   1
*Nset, nset=SMA_FullAssembly, instance=SMA_beam-2, generate
  1,  31,   1
*Nset, nset=SMA_FullAssembly, instance=SMA_beam-3, generate
  1,  31,   1
*Nset, nset=SMA_FullAssembly, instance=SMA_beam-4, generate
  1,  31,   1
*Nset, nset=SMA_FullAssembly, instance=SMA_beam-5, generate
  1,  31,   1
*Nset, nset=SMA_FullAssembly, instance=SMA_beam-6, generate
  1,  31,   1
*Nset, nset=SMA_FullAssembly, instance=SMA_beam-7, generate
  1,  31,   1
*Nset, nset=SMA_FullAssembly, instance=SMA_beam-8, generate
  1,  31,   1
*Elset, elset=SMA_FullAssembly, instance=SMA_beam-1, generate
  1,  15,   1
*Elset, elset=SMA_FullAssembly, instance=SMA_beam-2, generate
  1,  15,   1
*Elset, elset=SMA_FullAssembly, instance=SMA_beam-3, generate
  1,  15,   1
*Elset, elset=SMA_FullAssembly, instance=SMA_beam-4, generate
  1,  15,   1
*Elset, elset=SMA_FullAssembly, instance=SMA_beam-5, generate
  1,  15,   1
*Elset, elset=SMA_FullAssembly, instance=SMA_beam-6, generate
  1,  15,   1
*Elset, elset=SMA_FullAssembly, instance=SMA_beam-7, generate
  1,  15,   1
*Elset, elset=SMA_FullAssembly, instance=SMA_beam-8, generate
  1,  15,   1
*Nset, nset=SMAwire_layer-2_beam-1, instance=SMA_beam-2
 2,
*Nset, nset=SMAwire_layer-2_beam-1, instance=SMA_beam-3
 2,
*Elset, elset=SMAwire_layer-2_beam-1
 5,
*Nset, nset=SMAwire_layer-2_beam-2, instance=SMA_beam-4
 2,
*Nset, nset=SMAwire_layer-2_beam-2, instance=SMA_beam-5
 2,
*Elset, elset=SMAwire_layer-2_beam-2
 6,
*Nset, nset=SMAwire_layer-2_beam-3, instance=SMA_beam-6
 2,
*Nset, nset=SMAwire_layer-2_beam-3, instance=SMA_beam-7
 2,
*Elset, elset=SMAwire_layer-2_beam-3
 7,
*Nset, nset=SMAwire_layer-2_beam-4, instance=SMA_beam-1
 2,
*Nset, nset=SMAwire_layer-2_beam-4, instance=SMA_beam-8
 2,
*Elset, elset=SMAwire_layer-2_beam-4
 8,
*Nset, nset=SMAwire_layer-4_beam-1, instance=SMA_beam-2
 4,
*Nset, nset=SMAwire_layer-4_beam-1, instance=SMA_beam-3
 4,
*Elset, elset=SMAwire_layer-4_beam-1
 12,
*Nset, nset=SMAwire_layer-4_beam-2, instance=SMA_beam-4
 4,
*Nset, nset=SMAwire_layer-4_beam-2, instance=SMA_beam-5
 4,
*Elset, elset=SMAwire_layer-4_beam-2
 13,
*Nset, nset=SMAwire_layer-4_beam-3, instance=SMA_beam-6
 4,
*Nset, nset=SMAwire_layer-4_beam-3, instance=SMA_beam-7
 4,
*Elset, elset=SMAwire_layer-4_beam-3
 14,
*Nset, nset=SMAwire_layer-4_beam-4, instance=SMA_beam-1
 4,
*Nset, nset=SMAwire_layer-4_beam-4, instance=SMA_beam-8
 4,
*Elset, elset=SMAwire_layer-4_beam-4
 15,
*Nset, nset=TRANSP
 1,
*Nset, nset=Trans_Wire, instance=SMA_beam-2
 4,
*Nset, nset=Trans_Wire
 1,
*Elset, elset=Trans_Wire
 1,
*Nset, nset=Transverse_Clip_1, instance=SMA_beam-2
 4,
*Nset, nset=actuator_b_vert, instance=SMAWire_(Nitinol)
 1,
*Nset, nset=actuator_t_vert, instance=SMAWire_(Nitinol)
 12,
*Nset, nset=bottom_beam, instance=CF_beam-6
 2,
*Nset, nset=bottom_beam, instance=SMAWire_(Nitinol)
 1,
*Elset, elset=bottom_beam
 17,
*Nset, nset=m_Set-90, instance=SMA_beam-3
 4,
*Nset, nset=m_Set-92, instance=SMA_beam-7
 4,
*Nset, nset=m_Set-96, instance=SMA_beam-5
 4,
*Nset, nset=m_Set-98, instance=SMA_beam-1
 4,
*Nset, nset=s_Set-88, instance=shade-2
 1,
*Nset, nset=s_Set-90, instance=shade-1
 1,
*Nset, nset=s_Set-92, instance=shade-4
 1,
*Nset, nset=s_Set-94, instance=shade-3
 1,
*Nset, nset=top_beam, instance=CF_beam-14
 2,
*Nset, nset=top_beam, instance=SMAWire_(Nitinol)
 12,
*Elset, elset=top_beam
 16,
*Nset, nset=_PickedSet62, internal, instance=CF_beam-1
 1,
*Nset, nset=_PickedSet63, internal, instance=CF_beam-2
 1,
*Nset, nset=_PickedSet64, internal, instance=CF_beam-2
 1,
*Nset, nset=_PickedSet65, internal, instance=CF_beam-3
 1,
*Nset, nset=_PickedSet66, internal, instance=CF_beam-3
 1,
*Nset, nset=_PickedSet67, internal, instance=CF_beam-4
 1,
*Nset, nset=_PickedSet76, internal, instance=SMA_beam-2
 1,
*Nset, nset=_PickedSet77, internal, instance=SMA_beam-1
 1,
*Nset, nset=_PickedSet78, internal, instance=SMA_beam-4
 1,
*Nset, nset=_PickedSet79, internal, instance=SMA_beam-3
 1,
*Nset, nset=_PickedSet80, internal, instance=SMA_beam-6
 1,
*Nset, nset=_PickedSet81, internal, instance=SMA_beam-5
 1,
*Nset, nset=_PickedSet82, internal, instance=SMA_beam-8
 1,
*Nset, nset=_PickedSet83, internal, instance=SMA_beam-7
 1,
*Nset, nset=_PickedSet92, internal, instance=CF_beam-9
 1,
*Nset, nset=_PickedSet93, internal, instance=CF_beam-10
 1,
*Nset, nset=_PickedSet94, internal, instance=CF_beam-10
 1,
*Nset, nset=_PickedSet95, internal, instance=CF_beam-11
 1,
*Nset, nset=_PickedSet96, internal, instance=CF_beam-11
 1,
*Nset, nset=_PickedSet97, internal, instance=CF_beam-12
 1,
*Nset, nset=_PickedSet106, internal, instance=SMA_beam-2
 3,
*Nset, nset=_PickedSet107, internal, instance=SMA_beam-1
 3,
*Nset, nset=_PickedSet108, internal, instance=SMA_beam-4
 3,
*Nset, nset=_PickedSet109, internal, instance=SMA_beam-3
 3,
*Nset, nset=_PickedSet110, internal, instance=SMA_beam-6
 3,
*Nset, nset=_PickedSet111, internal, instance=SMA_beam-5
 3,
*Nset, nset=_PickedSet112, internal, instance=SMA_beam-8
 3,
*Nset, nset=_PickedSet113, internal, instance=SMA_beam-7
 3,
*Elset, elset=_shade_geom-1_SPOS, internal, instance=shade-1, generate
 1,  4,  1
*Surface, type=ELEMENT, name=shade_geom-1
_shade_geom-1_SPOS, SPOS
*Elset, elset=_shade_geom-2_SPOS, internal, instance=shade-2, generate
 1,  4,  1
*Surface, type=ELEMENT, name=shade_geom-2
_shade_geom-2_SPOS, SPOS
*Elset, elset=_shade_geom-3_SPOS, internal, instance=shade-3, generate
 1,  4,  1
*Surface, type=ELEMENT, name=shade_geom-3
_shade_geom-3_SPOS, SPOS
*Elset, elset=_shade_geom-4_SPOS, internal, instance=shade-4, generate
 1,  4,  1
*Surface, type=ELEMENT, name=shade_geom-4
_shade_geom-4_SPOS, SPOS
*Surface, type=NODE, name=_PickedSet62_CNS_, internal
_PickedSet62, 1.
*Surface, type=NODE, name=_PickedSet63_CNS_, internal
_PickedSet63, 1.
*Surface, type=NODE, name=_PickedSet64_CNS_, internal
_PickedSet64, 1.
*Surface, type=NODE, name=_PickedSet65_CNS_, internal
_PickedSet65, 1.
*Surface, type=NODE, name=_PickedSet66_CNS_, internal
_PickedSet66, 1.
*Surface, type=NODE, name=_PickedSet67_CNS_, internal
_PickedSet67, 1.
*Surface, type=NODE, name=_PickedSet92_CNS_, internal
_PickedSet92, 1.
*Surface, type=NODE, name=_PickedSet93_CNS_, internal
_PickedSet93, 1.
*Surface, type=NODE, name=_PickedSet94_CNS_, internal
_PickedSet94, 1.
*Surface, type=NODE, name=_PickedSet95_CNS_, internal
_PickedSet95, 1.
*Surface, type=NODE, name=_PickedSet96_CNS_, internal
_PickedSet96, 1.
*Surface, type=NODE, name=_PickedSet97_CNS_, internal
_PickedSet97, 1.
*Surface, type=NODE, name=_PickedSet76_CNS_, internal
_PickedSet76, 1.
*Surface, type=NODE, name=_PickedSet106_CNS_, internal
_PickedSet106, 1.
*Surface, type=NODE, name=_PickedSet78_CNS_, internal
_PickedSet78, 1.
*Surface, type=NODE, name=_PickedSet108_CNS_, internal
_PickedSet108, 1.
*Surface, type=NODE, name=_PickedSet80_CNS_, internal
_PickedSet80, 1.
*Surface, type=NODE, name=_PickedSet110_CNS_, internal
_PickedSet110, 1.
*Surface, type=NODE, name=_PickedSet82_CNS_, internal
_PickedSet82, 1.
*Surface, type=NODE, name=_PickedSet112_CNS_, internal
_PickedSet112, 1.
*Surface, type=NODE, name=s_Set-88_CNS_, internal
s_Set-88, 1.
*Surface, type=NODE, name=s_Set-90_CNS_, internal
s_Set-90, 1.
*Surface, type=NODE, name=s_Set-94_CNS_, internal
s_Set-94, 1.
*Surface, type=NODE, name=s_Set-92_CNS_, internal
s_Set-92, 1.
*Orientation, name="Datum csys-2"
-0.718979378162552,           0., -0.695031404885412,           0.,           1.,           0.
1, 0.
*Orientation, name="Datum csys-4"
0.923879532511287,           0., 0.38268343236509,           0.,           1.,           0.
1, 0.
*Orientation, name="Datum csys-6"
0.38268343236509,           0., -0.923879532511287,           0.,           1.,           0.
1, 0.
*Orientation, name="Datum csys-8"
-0.923879532511287,           0., -0.38268343236509,           0.,           1.,           0.
1, 0.
*Orientation, name="Datum csys-10"
0.707106781186547,           0., -0.707106781186548,           0.,           1.,           0.
1, 0.
*Orientation, name="Datum csys-12"
-0.707106781186548,           0., -0.707106781186547,           0.,           1.,           0.
1, 0.
*Orientation, name="Datum csys-14"
-0.707106781186547,           0., 0.707106781186547,           0.,           1.,           0.
1, 0.
*Orientation, name="Datum csys-16"
0.707106781186548,           0., 0.707106781186547,           0.,           1.,           0.
1, 0.
*Orientation, name="Datum csys-18"
0.923879532511287,           0., 0.38268343236509,           0.,           1.,           0.
1, 0.
*Orientation, name="Datum csys-20"
0.38268343236509,           0., -0.923879532511287,           0.,           1.,           0.
1, 0.
*Orientation, name="Datum csys-22"
-0.923879532511287,           0., -0.38268343236509,           0.,           1.,           0.
1, 0.
*Orientation, name="Datum csys-24"
0.707106781186547,           0., -0.707106781186548,           0.,           1.,           0.
1, 0.
*Orientation, name="Datum csys-26"
-0.707106781186548,           0., -0.707106781186547,           0.,           1.,           0.
1, 0.
*Orientation, name="Datum csys-28"
-0.707106781186547,           0., 0.707106781186548,           0.,           1.,           0.
1, 0.
*Orientation, name="Datum csys-30"
0.707106781186548,           0., 0.707106781186547,           0.,           1.,           0.
1, 0.
** Constraint: CFBEAM_UNION-1
*Tie, name=CFBEAM_UNION-1, adjust=yes
_PickedSet63_CNS_, _PickedSet62_CNS_
** Constraint: CFBEAM_UNION-2
*Tie, name=CFBEAM_UNION-2, adjust=yes
_PickedSet65_CNS_, _PickedSet64_CNS_
** Constraint: CFBEAM_UNION-3
*Tie, name=CFBEAM_UNION-3, adjust=yes
_PickedSet67_CNS_, _PickedSet66_CNS_
** Constraint: CFBEAM_UNION-5
*Tie, name=CFBEAM_UNION-5, adjust=yes
_PickedSet93_CNS_, _PickedSet92_CNS_
** Constraint: CFBEAM_UNION-6
*Tie, name=CFBEAM_UNION-6, adjust=yes
_PickedSet95_CNS_, _PickedSet94_CNS_
** Constraint: CFBEAM_UNION-7
*Tie, name=CFBEAM_UNION-7, adjust=yes
_PickedSet97_CNS_, _PickedSet96_CNS_
** Constraint: CF_beam-1-layer-1-DOF1
*Equation
2
CF_beam-1-layer-1-A, 1, 1.
CF_beam-1-layer-1-B, 1, -1.
** Constraint: CF_beam-1-layer-1-DOF2
*Equation
2
CF_beam-1-layer-1-A, 2, 1.
CF_beam-1-layer-1-B, 2, -1.
** Constraint: CF_beam-1-layer-1-DOF3
*Equation
2
CF_beam-1-layer-1-A, 3, 1.
CF_beam-1-layer-1-B, 3, -1.
** Constraint: CF_beam-1-layer-1-DOF5
*Equation
2
CF_beam-1-layer-1-A, 5, 1.
CF_beam-1-layer-1-B, 5, -1.
** Constraint: CF_beam-1-layer-1-DOF6
*Equation
2
CF_beam-1-layer-1-A, 6, 1.
CF_beam-1-layer-1-B, 6, -1.
** Constraint: CF_beam-2-layer-1-DOF1
*Equation
2
CF_beam-2-layer-1-A, 1, 1.
CF_beam-2-layer-1-B, 1, -1.
** Constraint: CF_beam-2-layer-1-DOF2
*Equation
2
CF_beam-2-layer-1-A, 2, 1.
CF_beam-2-layer-1-B, 2, -1.
** Constraint: CF_beam-2-layer-1-DOF3
*Equation
2
CF_beam-2-layer-1-A, 3, 1.
CF_beam-2-layer-1-B, 3, -1.
** Constraint: CF_beam-2-layer-1-DOF5
*Equation
2
CF_beam-2-layer-1-A, 5, 1.
CF_beam-2-layer-1-B, 5, -1.
** Constraint: CF_beam-2-layer-1-DOF6
*Equation
2
CF_beam-2-layer-1-A, 6, 1.
CF_beam-2-layer-1-B, 6, -1.
** Constraint: CF_beam-3-layer-1-DOF1
*Equation
2
CF_beam-3-layer-1-A, 1, 1.
CF_beam-3-layer-1-B, 1, -1.
** Constraint: CF_beam-3-layer-1-DOF2
*Equation
2
CF_beam-3-layer-1-A, 2, 1.
CF_beam-3-layer-1-B, 2, -1.
** Constraint: CF_beam-3-layer-1-DOF3
*Equation
2
CF_beam-3-layer-1-A, 3, 1.
CF_beam-3-layer-1-B, 3, -1.
** Constraint: CF_beam-3-layer-1-DOF5
*Equation
2
CF_beam-3-layer-1-A, 5, 1.
CF_beam-3-layer-1-B, 5, -1.
** Constraint: CF_beam-3-layer-1-DOF6
*Equation
2
CF_beam-3-layer-1-A, 6, 1.
CF_beam-3-layer-1-B, 6, -1.
** Constraint: CF_beam-4-layer-1-DOF1
*Equation
2
CF_beam-4-layer-1-A, 1, 1.
CF_beam-4-layer-1-B, 1, -1.
** Constraint: CF_beam-4-layer-1-DOF2
*Equation
2
CF_beam-4-layer-1-A, 2, 1.
CF_beam-4-layer-1-B, 2, -1.
** Constraint: CF_beam-4-layer-1-DOF3
*Equation
2
CF_beam-4-layer-1-A, 3, 1.
CF_beam-4-layer-1-B, 3, -1.
** Constraint: CF_beam-4-layer-1-DOF5
*Equation
2
CF_beam-4-layer-1-A, 5, 1.
CF_beam-4-layer-1-B, 5, -1.
** Constraint: CF_beam-4-layer-1-DOF6
*Equation
2
CF_beam-4-layer-1-A, 6, 1.
CF_beam-4-layer-1-B, 6, -1.
** Constraint: CF_beam-5-layer-2-DOF1
*Equation
2
CF_beam-5-layer-2-A, 1, 1.
CF_beam-5-layer-2-B, 1, -1.
** Constraint: CF_beam-5-layer-2-DOF2
*Equation
2
CF_beam-5-layer-2-A, 2, 1.
CF_beam-5-layer-2-B, 2, -1.
** Constraint: CF_beam-5-layer-2-DOF3
*Equation
2
CF_beam-5-layer-2-A, 3, 1.
CF_beam-5-layer-2-B, 3, -1.
** Constraint: CF_beam-5-layer-2-DOF5
*Equation
2
CF_beam-5-layer-2-A, 5, 1.
CF_beam-5-layer-2-B, 5, -1.
** Constraint: CF_beam-5-layer-2-DOF6
*Equation
2
CF_beam-5-layer-2-A, 6, 1.
CF_beam-5-layer-2-B, 6, -1.
** Constraint: CF_beam-6-layer-2-DOF1
*Equation
2
CF_beam-6-layer-2-A, 1, 1.
CF_beam-6-layer-2-B, 1, -1.
** Constraint: CF_beam-6-layer-2-DOF2
*Equation
2
CF_beam-6-layer-2-A, 2, 1.
CF_beam-6-layer-2-B, 2, -1.
** Constraint: CF_beam-6-layer-2-DOF3
*Equation
2
CF_beam-6-layer-2-A, 3, 1.
CF_beam-6-layer-2-B, 3, -1.
** Constraint: CF_beam-6-layer-2-DOF5
*Equation
2
CF_beam-6-layer-2-A, 5, 1.
CF_beam-6-layer-2-B, 5, -1.
** Constraint: CF_beam-6-layer-2-DOF6
*Equation
2
CF_beam-6-layer-2-A, 6, 1.
CF_beam-6-layer-2-B, 6, -1.
** Constraint: CF_beam-7-layer-2-DOF1
*Equation
2
CF_beam-7-layer-2-A, 1, 1.
CF_beam-7-layer-2-B, 1, -1.
** Constraint: CF_beam-7-layer-2-DOF2
*Equation
2
CF_beam-7-layer-2-A, 2, 1.
CF_beam-7-layer-2-B, 2, -1.
** Constraint: CF_beam-7-layer-2-DOF3
*Equation
2
CF_beam-7-layer-2-A, 3, 1.
CF_beam-7-layer-2-B, 3, -1.
** Constraint: CF_beam-7-layer-2-DOF5
*Equation
2
CF_beam-7-layer-2-A, 5, 1.
CF_beam-7-layer-2-B, 5, -1.
** Constraint: CF_beam-7-layer-2-DOF6
*Equation
2
CF_beam-7-layer-2-A, 6, 1.
CF_beam-7-layer-2-B, 6, -1.
** Constraint: CF_beam-8-layer-2-DOF1
*Equation
2
CF_beam-8-layer-2-A, 1, 1.
CF_beam-8-layer-2-B, 1, -1.
** Constraint: CF_beam-8-layer-2-DOF2
*Equation
2
CF_beam-8-layer-2-A, 2, 1.
CF_beam-8-layer-2-B, 2, -1.
** Constraint: CF_beam-8-layer-2-DOF3
*Equation
2
CF_beam-8-layer-2-A, 3, 1.
CF_beam-8-layer-2-B, 3, -1.
** Constraint: CF_beam-8-layer-2-DOF5
*Equation
2
CF_beam-8-layer-2-A, 5, 1.
CF_beam-8-layer-2-B, 5, -1.
** Constraint: CF_beam-8-layer-2-DOF6
*Equation
2
CF_beam-8-layer-2-A, 6, 1.
CF_beam-8-layer-2-B, 6, -1.
** Constraint: CF_beam-9-layer-3-DOF1
*Equation
2
CF_beam-9-layer-3-A, 1, 1.
CF_beam-9-layer-3-B, 1, -1.
** Constraint: CF_beam-9-layer-3-DOF2
*Equation
2
CF_beam-9-layer-3-A, 2, 1.
CF_beam-9-layer-3-B, 2, -1.
** Constraint: CF_beam-9-layer-3-DOF3
*Equation
2
CF_beam-9-layer-3-A, 3, 1.
CF_beam-9-layer-3-B, 3, -1.
** Constraint: CF_beam-9-layer-3-DOF5
*Equation
2
CF_beam-9-layer-3-A, 5, 1.
CF_beam-9-layer-3-B, 5, -1.
** Constraint: CF_beam-9-layer-3-DOF6
*Equation
2
CF_beam-9-layer-3-A, 6, 1.
CF_beam-9-layer-3-B, 6, -1.
** Constraint: CF_beam-10-layer-3-DOF1
*Equation
2
CF_beam-10-layer-3-A, 1, 1.
CF_beam-10-layer-3-B, 1, -1.
** Constraint: CF_beam-10-layer-3-DOF2
*Equation
2
CF_beam-10-layer-3-A, 2, 1.
CF_beam-10-layer-3-B, 2, -1.
** Constraint: CF_beam-10-layer-3-DOF3
*Equation
2
CF_beam-10-layer-3-A, 3, 1.
CF_beam-10-layer-3-B, 3, -1.
** Constraint: CF_beam-10-layer-3-DOF5
*Equation
2
CF_beam-10-layer-3-A, 5, 1.
CF_beam-10-layer-3-B, 5, -1.
** Constraint: CF_beam-10-layer-3-DOF6
*Equation
2
CF_beam-10-layer-3-A, 6, 1.
CF_beam-10-layer-3-B, 6, -1.
** Constraint: CF_beam-11-layer-3-DOF1
*Equation
2
CF_beam-11-layer-3-A, 1, 1.
CF_beam-11-layer-3-B, 1, -1.
** Constraint: CF_beam-11-layer-3-DOF2
*Equation
2
CF_beam-11-layer-3-A, 2, 1.
CF_beam-11-layer-3-B, 2, -1.
** Constraint: CF_beam-11-layer-3-DOF3
*Equation
2
CF_beam-11-layer-3-A, 3, 1.
CF_beam-11-layer-3-B, 3, -1.
** Constraint: CF_beam-11-layer-3-DOF5
*Equation
2
CF_beam-11-layer-3-A, 5, 1.
CF_beam-11-layer-3-B, 5, -1.
** Constraint: CF_beam-11-layer-3-DOF6
*Equation
2
CF_beam-11-layer-3-A, 6, 1.
CF_beam-11-layer-3-B, 6, -1.
** Constraint: CF_beam-12-layer-3-DOF1
*Equation
2
CF_beam-12-layer-3-A, 1, 1.
CF_beam-12-layer-3-B, 1, -1.
** Constraint: CF_beam-12-layer-3-DOF2
*Equation
2
CF_beam-12-layer-3-A, 2, 1.
CF_beam-12-layer-3-B, 2, -1.
** Constraint: CF_beam-12-layer-3-DOF3
*Equation
2
CF_beam-12-layer-3-A, 3, 1.
CF_beam-12-layer-3-B, 3, -1.
** Constraint: CF_beam-12-layer-3-DOF5
*Equation
2
CF_beam-12-layer-3-A, 5, 1.
CF_beam-12-layer-3-B, 5, -1.
** Constraint: CF_beam-12-layer-3-DOF6
*Equation
2
CF_beam-12-layer-3-A, 6, 1.
CF_beam-12-layer-3-B, 6, -1.
** Constraint: CF_beam-13-layer-4-DOF1
*Equation
2
CF_beam-13-layer-4-A, 1, 1.
CF_beam-13-layer-4-B, 1, -1.
** Constraint: CF_beam-13-layer-4-DOF2
*Equation
2
CF_beam-13-layer-4-A, 2, 1.
CF_beam-13-layer-4-B, 2, -1.
** Constraint: CF_beam-13-layer-4-DOF3
*Equation
2
CF_beam-13-layer-4-A, 3, 1.
CF_beam-13-layer-4-B, 3, -1.
** Constraint: CF_beam-13-layer-4-DOF5
*Equation
2
CF_beam-13-layer-4-A, 5, 1.
CF_beam-13-layer-4-B, 5, -1.
** Constraint: CF_beam-13-layer-4-DOF6
*Equation
2
CF_beam-13-layer-4-A, 6, 1.
CF_beam-13-layer-4-B, 6, -1.
** Constraint: CF_beam-14-layer-4-DOF1
*Equation
2
CF_beam-14-layer-4-A, 1, 1.
CF_beam-14-layer-4-B, 1, -1.
** Constraint: CF_beam-14-layer-4-DOF2
*Equation
2
CF_beam-14-layer-4-A, 2, 1.
CF_beam-14-layer-4-B, 2, -1.
** Constraint: CF_beam-14-layer-4-DOF3
*Equation
2
CF_beam-14-layer-4-A, 3, 1.
CF_beam-14-layer-4-B, 3, -1.
** Constraint: CF_beam-14-layer-4-DOF5
*Equation
2
CF_beam-14-layer-4-A, 5, 1.
CF_beam-14-layer-4-B, 5, -1.
** Constraint: CF_beam-14-layer-4-DOF6
*Equation
2
CF_beam-14-layer-4-A, 6, 1.
CF_beam-14-layer-4-B, 6, -1.
** Constraint: CF_beam-15-layer-4-DOF1
*Equation
2
CF_beam-15-layer-4-A, 1, 1.
CF_beam-15-layer-4-B, 1, -1.
** Constraint: CF_beam-15-layer-4-DOF2
*Equation
2
CF_beam-15-layer-4-A, 2, 1.
CF_beam-15-layer-4-B, 2, -1.
** Constraint: CF_beam-15-layer-4-DOF3
*Equation
2
CF_beam-15-layer-4-A, 3, 1.
CF_beam-15-layer-4-B, 3, -1.
** Constraint: CF_beam-15-layer-4-DOF5
*Equation
2
CF_beam-15-layer-4-A, 5, 1.
CF_beam-15-layer-4-B, 5, -1.
** Constraint: CF_beam-15-layer-4-DOF6
*Equation
2
CF_beam-15-layer-4-A, 6, 1.
CF_beam-15-layer-4-B, 6, -1.
** Constraint: CF_beam-16-layer-4-DOF1
*Equation
2
CF_beam-16-layer-4-A, 1, 1.
CF_beam-16-layer-4-B, 1, -1.
** Constraint: CF_beam-16-layer-4-DOF2
*Equation
2
CF_beam-16-layer-4-A, 2, 1.
CF_beam-16-layer-4-B, 2, -1.
** Constraint: CF_beam-16-layer-4-DOF3
*Equation
2
CF_beam-16-layer-4-A, 3, 1.
CF_beam-16-layer-4-B, 3, -1.
** Constraint: CF_beam-16-layer-4-DOF5
*Equation
2
CF_beam-16-layer-4-A, 5, 1.
CF_beam-16-layer-4-B, 5, -1.
** Constraint: CF_beam-16-layer-4-DOF6
*Equation
2
CF_beam-16-layer-4-A, 6, 1.
CF_beam-16-layer-4-B, 6, -1.
** Constraint: SMA_beam-1-layer-1
*MPC
BEAM, _PickedSet76, _PickedSet77
** Constraint: SMA_beam-1-layer-3
*MPC
BEAM, _PickedSet106, _PickedSet107
** Constraint: SMA_beam-3-layer-1
*MPC
BEAM, _PickedSet78, _PickedSet79
** Constraint: SMA_beam-3-layer-3
*MPC
BEAM, _PickedSet108, _PickedSet109
** Constraint: SMA_beam-5-layer-1
*MPC
BEAM, _PickedSet80, _PickedSet81
** Constraint: SMA_beam-5-layer-3
*MPC
BEAM, _PickedSet110, _PickedSet111
** Constraint: SMA_beam-7-layer-1
*MPC
BEAM, _PickedSet82, _PickedSet83
** Constraint: SMA_beam-7-layer-3
*MPC
BEAM, _PickedSet112, _PickedSet113
** Constraint: shade1
*MPC
BEAM, s_Set-88, m_Set-98
** Constraint: shade2
*MPC
BEAM, s_Set-90, m_Set-90
** Constraint: shade3
*MPC
BEAM, s_Set-94, m_Set-96
** Constraint: shade4
*MPC
BEAM, s_Set-92, m_Set-92
*End Assembly
*Amplitude, name=Assembly_Amp, definition=SMOOTH STEP
             0.,              0.,              1.,              1.
** 
** MATERIALS
** 
*Material, name=CF
*Density
1500.,
*Elastic
 5.8e+10, 0.27
*Material, name=NiTi
*SUPERELASTIC
 3e+10,     0.33,   0.0745, 5.52e+08, 5.55e+08,  2.1e+08, 2.05e+08,       0.
   299.15,    5e+06,  2.9e+06
*Density
6450.,
*Elastic
 6e+10, 0.33
*Specific Heat
470.,
*Material, name=SMA
*Conductivity
18.,
*Density
6450.,
*Elastic
 6e+10, 0.33
*Expansion, zero=200.
           0.,  200.
           0.,  235.
           0.,  270.
 -7.04225e-05,  271.
 -0.000138889,  272.
  -0.00020548,  273.
  -0.00027027,  274.
 -0.000333333,  275.
 -0.000394737,  276.
 -0.000454546,  277.
 -0.000512821,  278.
  -0.00056962,  279.
    -0.000625,  280.
 -0.000617284,  281.
 -0.000609756,  282.
  -0.00056243, 288.9
 -0.000521921, 295.8
 -0.000486855, 302.7
 -0.000456204, 309.6
 -0.000429184, 316.5
** ... 6 like lines cut
*Specific Heat
837.,
*Material, name=Shade
*Elastic
 4.2e+10, 0.48
** 
** INTERACTION PROPERTIES
** 
*Surface Interaction, name=Contact
1.,
*Surface Behavior, pressure-overclosure=HARD
** 
** BOUNDARY CONDITIONS
** 
** Name: Ground_Encastre Type: Symmetry/Antisymmetry/Encastre
*Boundary
"Encastre Points", ENCASTRE
** Name: TRANSP_FIX Type: Displacement/Rotation
*Boundary, fixed
TRANSP, 1, 1
TRANSP, 3, 3
TRANSP, 4, 4
TRANSP, 5, 5
TRANSP, 6, 6
** 
** PREDEFINED FIELDS
** 
** Name: Actuator_temp   Type: Temperature
*Initial Conditions, type=TEMPERATURE
All-actuator-elems, 200., 200., 200., 200., 200.
** Name: Initial_Temperature   Type: Temperature
*Initial Conditions, type=TEMPERATURE
SMA_FullAssembly, 293., 293., 293., 293., 293.
** 
** INTERACTIONS
** 
** Interaction: General Contact
*Contact
*Contact Inclusions, ALL EXTERIOR
*Contact Exclusions
shade_geom-1 , shade_geom-2
shade_geom-1 , shade_geom-3
shade_geom-1 , shade_geom-4
shade_geom-2 , shade_geom-3
shade_geom-2 , shade_geom-4
shade_geom-3 , shade_geom-4
CF_beam-16.CF_Full , shade_geom-1
CF_beam-16.CF_Full , shade_geom-2
CF_beam-16.CF_Full , shade_geom-3
CF_beam-16.CF_Full , shade_geom-4
CF_beam-15.CF_Full , shade_geom-1
CF_beam-15.CF_Full , shade_geom-2
CF_beam-15.CF_Full , shade_geom-3
CF_beam-15.CF_Full , shade_geom-4
CF_beam-14.CF_Full , shade_geom-1
CF_beam-14.CF_Full , shade_geom-2
CF_beam-14.CF_Full , shade_geom-3
CF_beam-14.CF_Full , shade_geom-4
CF_beam-13.CF_Full , shade_geom-1
CF_beam-13.CF_Full , shade_geom-2
CF_beam-13.CF_Full , shade_geom-3
CF_beam-13.CF_Full , shade_geom-4
*Contact Property Assignment
 ,  , Contact
** ----------------------------------------------------------------
** 
** STEP: Remove_actuator
** 
*Step, name=Remove_actuator, nlgeom=YES, inc=1000000
*Static
1., 1., 1e-12, 1.
** 
** BOUNDARY CONDITIONS
** 
** Name: Stabilize-Dead-SMA Type: Displacement/Rotation
*Boundary
All-actuator-elems, 1, 1
All-actuator-elems, 2, 2
All-actuator-elems, 3, 3
All-actuator-elems, 4, 4
All-actuator-elems, 5, 5
All-actuator-elems, 6, 6
** 
** INTERACTIONS
** 
** Interaction: remove_actuator
*Model Change, remove
All-actuator-elems, 
** Interaction: remove_connector_1
*Model Change, remove
top_beam, 
** Interaction: remove_connector_2
*Model Change, remove
bottom_beam, 
** 
** OUTPUT REQUESTS
** 
*Restart, write, frequency=0
** 
** FIELD OUTPUT: F-Output-1
** 
*Output, field, variable=PRESELECT
** 
** HISTORY OUTPUT: H-Output-1
** 
*Output, history, variable=PRESELECT
*End Step
** ----------------------------------------------------------------
** 
** STEP: Assembly
** 
*Step, name=Assembly, nlgeom=YES, inc=10000
*Static
0.1, 1., 1e-09, 1.
** 
** BOUNDARY CONDITIONS
** 
** Name: CFWire-1 Type: Connector displacement
*Connector Motion, amplitude=Assembly_Amp
CFWire-1-Set-1, 1, -0.0666215
** Name: CFWire-2 Type: Connector displacement
*Connector Motion, amplitude=Assembly_Amp
CFWire-2-Set-1, 1, -0.0666215
** Name: CFWire-3 Type: Connector displacement
*Connector Motion, amplitude=Assembly_Amp
CFWire-3-Set-1, 1, -0.0666215
** Name: CFWire-4 Type: Connector displacement
*Connector Motion, amplitude=Assembly_Amp
CFWire-4-Set-1, 1, -0.0666215
** Name: CFWire-5 Type: Connector displacement
*Connector Motion, amplitude=Assembly_Amp
CFWire-5-Set-1, 1, -0.0666215
** Name: CFWire-6 Type: Connector displacement
*Connector Motion, amplitude=Assembly_Amp
CFWire-6-Set-1, 1, -0.0666215
** Name: SMAWire-1 Type: Connector displacement
*Connector Motion, amplitude=Assembly_Amp
SMAwire_layer-2_beam-1, 1, -0.0870452
** Name: SMAWire-2 Type: Connector displacement
*Connector Motion, amplitude=Assembly_Amp
SMAwire_layer-2_beam-2, 1, -0.0870452
** Name: SMAWire-3 Type: Connector displacement
*Connector Motion, amplitude=Assembly_Amp
SMAwire_layer-2_beam-3, 1, -0.0870452
** Name: SMAWire-4 Type: Connector displacement
*Connector Motion, amplitude=Assembly_Amp
SMAwire_layer-2_beam-4, 1, -0.0870452
** Name: SMAWire-5 Type: Connector displacement
*Connector Motion, amplitude=Assembly_Amp
SMAwire_layer-4_beam-1, 1, -0.0870452
** Name: SMAWire-6 Type: Connector displacement
*Connector Motion, amplitude=Assembly_Amp
SMAwire_layer-4_beam-2, 1, -0.0870452
** Name: SMAWire-7 Type: Connector displacement
*Connector Motion, amplitude=Assembly_Amp
SMAwire_layer-4_beam-3, 1, -0.0870452
** Name: SMAWire-8 Type: Connector displacement
*Connector Motion, amplitude=Assembly_Amp
SMAwire_layer-4_beam-4, 1, -0.0870452
** 
** OUTPUT REQUESTS
** 
*Restart, write, frequency=10
** 
** FIELD OUTPUT: F-Output-1
** 
*Output, field, time interval=0.01, time marks=NO
*Node Output, variable=PRESELECT
*Element Output, directions=YES
LE, MVF, PE, PEEQ, PEMAG, S, TE, TEEQ
*Contact Output, variable=PRESELECT
** 
** HISTORY OUTPUT: H-Output-1
** 
*Output, history, variable=PRESELECT
*End Step
** ----------------------------------------------------------------
** 
** STEP: Add_actuator
** 
*Step, name=Add_actuator, nlgeom=YES, inc=1000000
*Static, stabilize, factor=0.0002, allsdtol=0, continue=NO
1., 1., 1e-12, 1.
** 
** BOUNDARY CONDITIONS
** 
** Name: Ground_Encastre Type: Symmetry/Antisymmetry/Encastre
*Boundary, op=NEW
"Encastre Points", ENCASTRE
** Name: Stabilize-Dead-SMA Type: Displacement/Rotation
*Boundary, op=NEW
** Name: TRANSP_FIX Type: Displacement/Rotation
*Boundary, op=NEW, fixed
TRANSP, 1, 1
TRANSP, 3, 3
TRANSP, 4, 4
TRANSP, 5, 5
TRANSP, 6, 6
** 
** INTERACTIONS
** 
** Interaction: remove_actuator
*Model Change, add
All-actuator-elems, 
** Interaction: remove_connector_1
*Model Change, add
top_beam, 
** Interaction: remove_connector_2
*Model Change, add
bottom_beam, 
** 
** OUTPUT REQUESTS
** 
*Restart, write, frequency=0
** 
** FIELD OUTPUT: F-Output-1
** 
*Output, field, time interval=0.01, time marks=NO
*Node Output, variable=PRESELECT
*Element Output, directions=YES
LE, MVF, PE, PEEQ, PEMAG, S, TE, TEEQ
*Contact Output, variable=PRESELECT
** 
** HISTORY OUTPUT: H-Output-1
** 
*Output, history, variable=PRESELECT
*End Step
** ----------------------------------------------------------------
** 
** STEP: Activate_actuator
** 
*Step, name=Activate_actuator, nlgeom=YES, inc=1000
*Coupled Temperature-displacement, creep=none, deltmx=5.
0.1, 20., 0.0001, 1.
** 
** OUTPUT REQUESTS
** 
*Restart, write, frequency=0
** 
** FIELD OUTPUT: F-Output-1
** 
*Output, field, time interval=0.01, time marks=NO
*Node Output
CF, NT, RF, U
*Element Output, directions=YES
LE, PE, PEEQ, PEMAG, S, SDV, TEMP
*Contact Output, variable=PRESELECT
** 
** HISTORY OUTPUT: H-Output-1
** 
*Output, history, variable=PRESELECT
*End Step
