*Heading
 Iteration 14
** Job name: SMAHeatTransient_14 Model name: Model_14
** Generated by: Abaqus/CAE 2025
*Preprint, echo=NO, model=NO, history=NO, contact=NO
**
** PARTS
**
*Part, name="SMAStrip (Nitinol)"
*Node
      1,  0.978488803,  0.100747585, -0.155829117
      2,  0.959210515,  0.100812659,  -0.15025343
      3,  0.949560761,  0.100844264, -0.147502631
      4,  0.930240154,  0.100905612, -0.142075256
      5,  0.920569539,  0.100935355, -0.139398709
      6,  0.901207805,  0.100992963, -0.134119987
      7,  0.891516924,  0.101020828, -0.131517842
      8,  0.872115195,  0.101074703, -0.126388058
      9,  0.862404525,  0.101100698, -0.123860471
     10,  0.842963934,  0.101150826, -0.118879959
     11,  0.833234131,  0.101174958, -0.116427071
     12,   0.81375587,  0.101221338, -0.111596107
     13,   0.80400753,  0.101243593, -0.109218068
     14,  0.784492671,  0.101286225, -0.104536943
     15,  0.774726331,  0.101306602, -0.102233894
     16,  0.755176067,  0.101345487, -0.0977028906
     17,  0.745392263,  0.101363987, -0.0954749659
     18,  0.725807786,  0.101399116, -0.0910943374
     19,  0.716007173,  0.101415746, -0.088941671
     20,  0.696389556,   0.10144712, -0.0847116932
** ... 1385 like lines cut
*Element, type=S3T
 1,   70,  153,   69
 2, 1251,  283,  284
 3,   69, 1247,   68
 4,  212,  258,  259
 5, 1300,  898,  989
 6, 1325,  696,  784
 7, 1318,  716,  803
 8,  652,  744,  745
 9, 1402,  752,  660
10,  661,  753,  754
11,  471,  561,  562
12, 1400,  540,  539
13,  493,  582,  583
14,  628,  627,  718
15,  632,  631,  723
16, 1398,  652, 1371
17,  678,  677,  769
18, 1374, 1373,  684
19, 1360,  806,  897
20, 1352,  830,  742
** ... 12 like lines cut
*Element, type=S4RT
  33,    1, 1240,  152,   67
  34, 1248,  408, 1243,  243
  35,  241,  406,  407,  242
  36,  241,  240,  405,  406
  37,  404,  240,  239, 1259
  38,  238,  237,  402,  403
  39,  402,  237,  236,  401
  40,  235,  400,  401,  236
  41,  234,  399,  400,  235
  42,  233,  399,  234, 1237
  43,  398,  233,  232,  397
  44,  397,  232,  231,  396
  45,  396,  231,  230,  395
  46,  230,  229,  394,  395
  47,  229,  228,  393,  394
  48,  228,  227,  392,  393
  49,  227,  226,  391,  392
  50,  226, 1265,  390,  391
  51,  389,  225,  224, 1322
  52,  224,  223,  388, 1322
** ... 1258 like lines cut
*Nset, nset=Set-1, generate
    1,  1405,     1
*Elset, elset=Set-1, generate
    1,  1310,     1
** Section: CompositeSection-1
*Shell Section, elset=Set-1, composite
0.0025, 3, Aluminum, 0., a
0.0025, 3, FakeSMA, 0., b
*End Part
**  
**
** ASSEMBLY
**
*Assembly, name=Assembly
**  
*Instance, name="SMAStrip (Nitinol)", part="SMAStrip (Nitinol)"
*End Instance
**  
*Nset, nset=Fixed-Set, instance="SMAStrip (Nitinol)", generate
 68,  78,   1
*Elset, elset=Fixed-Set, instance="SMAStrip (Nitinol)"
    1,    3,  122,  123,  124,  291,  292, 1076, 1155, 1247
*Nset, nset=Set-Temp, instance="SMAStrip (Nitinol)", generate
    1,  1405,     1
*Elset, elset=Set-Temp, instance="SMAStrip (Nitinol)", generate
    1,  1310,     1
*Elset, elset=_All-Surfaces_SPOS, internal, instance="SMAStrip (Nitinol)", generate
    1,  1310,     1
*Surface, type=ELEMENT, name=All-Surfaces
_All-Surfaces_SPOS, SPOS
*End Assembly
*Amplitude, name=InstantVacuum
             0.,              1.,              4.,              1.
** 
** MATERIALS
** 
*Material, name=Aluminum
*Conductivity
100.,
*Density
2300.,
*Elastic
 7e+10, 0.3
*Expansion
0.,
*Specific Heat
900.,
*Material, name=FakeSMA
*Conductivity
50.,
*Density
6450.,
*Elastic
 9e+10, 0.3
*Expansion
 0.0025,
*Specific Heat
800.,
** 
** PHYSICAL CONSTANTS
** 
*Physical Constants, absolute zero=0., stefan boltzmann=5.67e-08
** 
** PREDEFINED FIELDS
** 
** Name: Temp0   Type: Temperature Using Field: TempField_Initial
*Initial Conditions, type=TEMPERATURE
"SMAStrip (Nitinol)".1, 5.68974, 5.68974, 5.68974, 5.68974, 5.68974
"SMAStrip (Nitinol)".2, 5.68801, 5.68801, 5.68801, 5.68801, 5.68801
"SMAStrip (Nitinol)".3, 5.68681, 5.68681, 5.68681, 5.68681, 5.68681
"SMAStrip (Nitinol)".4, 5.68346, 5.68346, 5.68346, 5.68346, 5.68346
"SMAStrip (Nitinol)".5, 5.6819, 5.6819, 5.6819, 5.6819, 5.6819
"SMAStrip (Nitinol)".6, 5.67881, 5.67881, 5.67881, 5.67881, 5.67881
"SMAStrip (Nitinol)".7, 5.67702, 5.67702, 5.67702, 5.67702, 5.67702
"SMAStrip (Nitinol)".8, 5.6726, 5.6726, 5.6726, 5.6726, 5.6726
"SMAStrip (Nitinol)".9, 5.67015, 5.67015, 5.67015, 5.67015, 5.67015
"SMAStrip (Nitinol)".10, 5.66473, 5.66473, 5.66473, 5.66473, 5.66473
"SMAStrip (Nitinol)".11, 5.66133, 5.66133, 5.66133, 5.66133, 5.66133
"SMAStrip (Nitinol)".12, 5.65464, 5.65464, 5.65464, 5.65464, 5.65464
"SMAStrip (Nitinol)".13, 5.65125, 5.65125, 5.65125, 5.65125, 5.65125
"SMAStrip (Nitinol)".14, 5.64321, 5.64321, 5.64321, 5.64321, 5.64321
"SMAStrip (Nitinol)".15, 5.63883, 5.63883, 5.63883, 5.63883, 5.63883
"SMAStrip (Nitinol)".16, 5.62742, 5.62742, 5.62742, 5.62742, 5.62742
"SMAStrip (Nitinol)".17, 5.62026, 5.62026, 5.62026, 5.62026, 5.62026
"SMAStrip (Nitinol)".18, 5.60042, 5.60042, 5.60042, 5.60042, 5.60042
"SMAStrip (Nitinol)".19, 5.58606, 5.58606, 5.58606, 5.58606, 5.58606
"SMAStrip (Nitinol)".20, 5.54483, 5.54483, 5.54483, 5.54483, 5.54483
** ... 1385 like lines cut
** ----------------------------------------------------------------
** 
** STEP: Heat_14
** 
*Step, name=Heat_14, nlgeom=YES, inc=200
*Coupled Temperature-displacement, creep=none, deltmx=5.
0.1, 10., 4e-05, 5.
** 
** BOUNDARY CONDITIONS
** 
** Name: FixEdge Type: Symmetry/Antisymmetry/Encastre
*Boundary
Fixed-Set, ENCASTRE
** 
** LOADS
** 
** Name: Load_14   Type: Surface heat flux Using Field: AnalyticalField-1
*Dflux
"SMAStrip (Nitinol)".1, SPOS, 317.643
"SMAStrip (Nitinol)".2, SPOS, 265.274
"SMAStrip (Nitinol)".3, SPOS, 300.632
"SMAStrip (Nitinol)".4, SPOS, 249.707
"SMAStrip (Nitinol)".5, SPOS, 303.971
"SMAStrip (Nitinol)".6, SPOS, 353.197
"SMAStrip (Nitinol)".7, SPOS, 350.267
"SMAStrip (Nitinol)".8, SPOS, 361.742
"SMAStrip (Nitinol)".9, SPOS, 362.984
"SMAStrip (Nitinol)".10, SPOS, 358.775
"SMAStrip (Nitinol)".11, SPOS, 353.146
"SMAStrip (Nitinol)".12, SPOS, 356.227
"SMAStrip (Nitinol)".13, SPOS, 354.884
"SMAStrip (Nitinol)".14, SPOS, 361.212
"SMAStrip (Nitinol)".15, SPOS, 362.878
"SMAStrip (Nitinol)".16, SPOS, 362.459
"SMAStrip (Nitinol)".17, SPOS, 360.758
"SMAStrip (Nitinol)".18, SPOS, 356.08
"SMAStrip (Nitinol)".19, SPOS, 342.968
"SMAStrip (Nitinol)".20, SPOS, 343.154
** ... 1290 like lines cut
** 
** INTERACTIONS
** 
** Interaction: ToVacuum
*Sradiate, amplitude=InstantVacuum
All-Surfaces, R, 4., 1.
** 
** OUTPUT REQUESTS
** 
*Restart, write, frequency=0
** 
** FIELD OUTPUT: F-Output-HFL
** 
*Output, field
*Element Output, directions=YES
HFL, 
** 
** FIELD OUTPUT: F-Output-1
** 
*Output, field, variable=PRESELECT
** 
** HISTORY OUTPUT: H-Output-1
** 
*Output, history, variable=PRESELECT
*End Step
