*Heading
 Iteration 8
** Job name: SMAHeatTransient_08 Model name: Model_08
** Generated by: Abaqus/CAE 2025
*Preprint, echo=NO, model=NO, history=NO, contact=NO
**
** PARTS
**
*Part, name="SMAStrip (Nitinol)"
*Node
      1, 0.00518387835,  0.095065102, 0.0040993751
      2, 0.0103677567,  0.100121051, 0.00819875021
      3,           0., 0.0900091603,           0.
      4,           0., 0.0800068676,           0.
      5,           0., 0.0700045824,           0.
      6,           0., 0.0600022897,           0.
      7,           0., 0.0500000007,           0.
      8,           0., 0.0399977081,           0.
      9,           0., 0.0299954191,           0.
     10,           0., 0.0199931283,           0.
     11,           0., 0.00999083836,           0.
     12, 0.000655328447, 0.00496430229, 0.00587382913
     13, 0.00131065689, -6.22337684e-05, 0.0117476583
     14, 0.0115063498, -0.000116054776, 0.0117103448
     15, 0.0212705303, -0.000167345803, 0.0095833065
     16, 0.0310154036, -0.000203814852, 0.00737801334
     17, 0.0407404229, -0.000227184137, 0.00509464974
     18, 0.0504450984, -0.000239175744, 0.00273339008
     19, 0.0697936192, -0.000235910164, -0.00222269562
     20, 0.0794345438, -0.000224095449, -0.00481668068
** ... 1258 like lines cut
*Element, type=S3T
 1, 1250,  857,  849
 2,  747,  754,  755
 3, 1232,  769,  770
 4,  879,  880,  871
 5,  293,  300,  301
 6,  319,  311,  318
 7, 1182,  707,  714
 8, 1122,   14,  216
 9,  234,  235,  221
10,  464,  463,  472
11, 1270,  524,  523
12, 1259,  564,  573
13, 1190,  668,  667
14,  838,  837,  846
15,  898,  897,  906
16, 1179,  984,  983
17, 1018, 1009, 1017
18, 1216, 1211,    3
19,  229, 1081, 1082
20,   13, 1123,   12
** ... 15 like lines cut
*Element, type=S4RT
  36, 1125,    2,    1,  225
  37,    3,  226,  225,    1
  38,  225,  223,  224, 1125
  39,  223,  237,  211,  224
  40,  245,  246,  211,  237
  41,  245,  254,  255,  246
  42,  262,  263,  255,  254
  43,  271,  272,  263,  262
  44,  280,  281,  272,  271
  45,  280,  288,  212,  281
  46,  288,  296,  297,  212
  47,  296,  304,  305,  297
  48,  306, 1117,  307, 1157
  49,  321, 1158, 1157, 1189
  50,  214,  322, 1158,  330
  51,  330,  337,  338,  214
  52,  346,  347,  338,  337
  53,  355,  215,  347,  346
  54,  364,  215,  363,  372
  55,  373,  364,  372, 1164
** ... 1125 like lines cut
*Nset, nset=Set-1, generate
    1,  1278,     1
*Elset, elset=Set-1, generate
    1,  1180,     1
** Section: CompositeSection-1
*Shell Section, elset=Set-1, composite
0.0025, 3, Aluminum, 0., a
0.0025, 3, FakeSMA, 0., b
*End Part
**  
**
** ASSEMBLY
**
*Assembly, name=Assembly
**  
*Instance, name="SMAStrip (Nitinol)", part="SMAStrip (Nitinol)"
*End Instance
**  
*Nset, nset=Fixed-Set, instance="SMAStrip (Nitinol)", generate
  3,  11,   1
*Elset, elset=Fixed-Set, instance="SMAStrip (Nitinol)"
  318,  481,  573,  668, 1115, 1118, 1120, 1158
*Nset, nset=Set-Temp, instance="SMAStrip (Nitinol)", generate
    1,  1278,     1
*Elset, elset=Set-Temp, instance="SMAStrip (Nitinol)", generate
    1,  1180,     1
*Elset, elset=_All-Surfaces_SPOS, internal, instance="SMAStrip (Nitinol)", generate
    1,  1180,     1
*Surface, type=ELEMENT, name=All-Surfaces
_All-Surfaces_SPOS, SPOS
*End Assembly
*Amplitude, name=InstantVacuum
             0.,              1.,              4.,              1.
** 
** MATERIALS
** 
*Material, name=Aluminum
*Conductivity
100.,
*Density
2300.,
*Elastic
 7e+10, 0.3
*Expansion
0.,
*Specific Heat
900.,
*Material, name=FakeSMA
*Conductivity
50.,
*Density
6450.,
*Elastic
 9e+10, 0.3
*Expansion
 0.0025,
*Specific Heat
800.,
** 
** PHYSICAL CONSTANTS
** 
*Physical Constants, absolute zero=0., stefan boltzmann=5.67e-08
** 
** PREDEFINED FIELDS
** 
** Name: Temp0   Type: Temperature Using Field: TempField_Initial
*Initial Conditions, type=TEMPERATURE
"SMAStrip (Nitinol)".1, 6.17914, 6.17914, 6.17914, 6.17914, 6.17914
"SMAStrip (Nitinol)".2, 6.17597, 6.17597, 6.17597, 6.17597, 6.17597
"SMAStrip (Nitinol)".3, 6.1823, 6.1823, 6.1823, 6.1823, 6.1823
"SMAStrip (Nitinol)".4, 6.18399, 6.18399, 6.18399, 6.18399, 6.18399
"SMAStrip (Nitinol)".5, 6.18475, 6.18475, 6.18475, 6.18475, 6.18475
"SMAStrip (Nitinol)".6, 6.18519, 6.18519, 6.18519, 6.18519, 6.18519
"SMAStrip (Nitinol)".7, 6.18541, 6.18541, 6.18541, 6.18541, 6.18541
"SMAStrip (Nitinol)".8, 6.18536, 6.18536, 6.18536, 6.18536, 6.18536
"SMAStrip (Nitinol)".9, 6.18509, 6.18509, 6.18509, 6.18509, 6.18509
"SMAStrip (Nitinol)".10, 6.18465, 6.18465, 6.18465, 6.18465, 6.18465
"SMAStrip (Nitinol)".11, 6.18385, 6.18385, 6.18385, 6.18385, 6.18385
"SMAStrip (Nitinol)".12, 6.1821, 6.1821, 6.1821, 6.1821, 6.1821
"SMAStrip (Nitinol)".13, 6.18035, 6.18035, 6.18035, 6.18035, 6.18035
"SMAStrip (Nitinol)".14, 6.17644, 6.17644, 6.17644, 6.17644, 6.17644
"SMAStrip (Nitinol)".15, 6.16637, 6.16637, 6.16637, 6.16637, 6.16637
"SMAStrip (Nitinol)".16, 6.15168, 6.15168, 6.15168, 6.15168, 6.15168
"SMAStrip (Nitinol)".17, 6.13413, 6.13413, 6.13413, 6.13413, 6.13413
"SMAStrip (Nitinol)".18, 6.11445, 6.11445, 6.11445, 6.11445, 6.11445
"SMAStrip (Nitinol)".19, 6.07099, 6.07099, 6.07099, 6.07099, 6.07099
"SMAStrip (Nitinol)".20, 6.04792, 6.04792, 6.04792, 6.04792, 6.04792
** ... 1258 like lines cut
** ----------------------------------------------------------------
** 
** STEP: Heat_08
** 
*Step, name=Heat_08, nlgeom=NO, inc=200
*Coupled Temperature-displacement, creep=none, deltmx=5.
0.1, 20., 4e-05, 5.
** 
** BOUNDARY CONDITIONS
** 
** Name: FixEdge Type: Symmetry/Antisymmetry/Encastre
*Boundary
Fixed-Set, ENCASTRE
** 
** LOADS
** 
** Name: Load_08   Type: Surface heat flux Using Field: AnalyticalField-1
*Dflux
"SMAStrip (Nitinol)".1, SPOS, -340.855
"SMAStrip (Nitinol)".4, SPOS, -382.316
"SMAStrip (Nitinol)".5, SPOS, 238.636
"SMAStrip (Nitinol)".6, SPOS, 221.702
"SMAStrip (Nitinol)".8, SPOS, 313.431
"SMAStrip (Nitinol)".9, SPOS, 302.143
"SMAStrip (Nitinol)".10, SPOS, 74.8623
"SMAStrip (Nitinol)".11, SPOS, 9.84412
"SMAStrip (Nitinol)".14, SPOS, -337.517
"SMAStrip (Nitinol)".15, SPOS, -387.209
"SMAStrip (Nitinol)".16, SPOS, -462.723
"SMAStrip (Nitinol)".17, SPOS, -490.707
"SMAStrip (Nitinol)".18, SPOS, 323.1
"SMAStrip (Nitinol)".19, SPOS, 319.853
"SMAStrip (Nitinol)".20, SPOS, 323.275
"SMAStrip (Nitinol)".21, SPOS, 323.365
"SMAStrip (Nitinol)".22, SPOS, 319.89
"SMAStrip (Nitinol)".23, SPOS, -412.659
"SMAStrip (Nitinol)".24, SPOS, -386.098
"SMAStrip (Nitinol)".25, SPOS, 317.09
** ... 781 like lines cut
** 
** INTERACTIONS
** 
** Interaction: ToVacuum
*Sradiate, amplitude=InstantVacuum
All-Surfaces, R, 4., 1.
** 
** OUTPUT REQUESTS
** 
*Restart, write, frequency=0
** 
** FIELD OUTPUT: F-Output-HFL
** 
*Output, field
*Element Output, directions=YES
HFL, 
** 
** FIELD OUTPUT: F-Output-1
** 
*Output, field, variable=PRESELECT
** 
** HISTORY OUTPUT: H-Output-1
** 
*Output, history, variable=PRESELECT
*End Step
