*Heading
 Iteration 4
** Job name: SMAHeatTransient_04 Model name: Model_04
** Generated by: Abaqus/CAE 2025
*Preprint, echo=NO, model=NO, history=NO, contact=NO
**
** PARTS
**
*Part, name="SMAStrip (Nitinol)"
*Node
      1, 0.000231647442,  0.100014567, 0.00408193376
      2,           0., 0.0900091603,           0.
      3,           0., 0.0800068751,           0.
      4,           0., 0.0700045824,           0.
      5,           0., 0.0600022897,           0.
      6,           0., 0.0500000007,           0.
      7,           0., 0.0399977118,           0.
      8,           0., 0.0299954191,           0.
      9,           0., 0.0199931283,           0.
     10,           0., 0.00999083836,           0.
     11, 0.000178362781, -9.57016618e-06, 0.00416123914
     12, 0.0100270584,  0.100039899, 0.00349634863
     13, 0.0100485981, 0.0900318623, 0.00350249023
     14, 0.0100701489, 0.0800238401, 0.00350862998
     15,  0.010091708,  0.070015803, 0.00351476786
     16, 0.0101132756, 0.0600077733, 0.00352090411
     17, 0.0101348534,   0.04999974, 0.0035270385
     18, 0.0101564405, 0.0399917103, 0.00353317126
     19, 0.0101780379, 0.0299836807, 0.00353930192
     20, 0.0101996446, 0.0199756492, 0.00354543072
** ... 1124 like lines cut
*Element, type=S4RT
   1,    1,    2,   13,   12
   2,    2,    3,   14,   13
   3,    3,    4,   15,   14
   4,    4,    5,   16,   15
   5,    5,    6,   17,   16
   6,    6,    7,   18,   17
   7,    7,    8,   19,   18
   8,    8,    9,   20,   19
   9,    9,   10,   21,   20
  10,   10,   11,   22,   21
  11,   12,   13,   24,   23
  12,   13,   14,   25,   24
  13,   14,   15,   26,   25
  14,   15,   16,   27,   26
  15,   16,   17,   28,   27
  16,   17,   18,   29,   28
  17,   18,   19,   30,   29
  18,   19,   20,   31,   30
  19,   20,   21,   32,   31
  20,   21,   22,   33,   32
** ... 1010 like lines cut
*Nset, nset=Set-1, generate
    1,  1144,     1
*Elset, elset=Set-1, generate
    1,  1030,     1
** Section: CompositeSection-1
*Shell Section, elset=Set-1, composite
0.0025, 3, Aluminum, 0., a
0.0025, 3, FakeSMA, 0., b
*End Part
**  
**
** ASSEMBLY
**
*Assembly, name=Assembly
**  
*Instance, name="SMAStrip (Nitinol)", part="SMAStrip (Nitinol)"
*End Instance
**  
*Nset, nset=Fixed-Set, instance="SMAStrip (Nitinol)", generate
  1,  10,   1
*Elset, elset=Fixed-Set, instance="SMAStrip (Nitinol)", generate
 1,  9,  1
*Nset, nset=Set-Temp, instance="SMAStrip (Nitinol)", generate
    1,  1144,     1
*Elset, elset=Set-Temp, instance="SMAStrip (Nitinol)", generate
    1,  1030,     1
*Elset, elset=_All-Surfaces_SPOS, internal, instance="SMAStrip (Nitinol)", generate
    1,  1030,     1
*Surface, type=ELEMENT, name=All-Surfaces
_All-Surfaces_SPOS, SPOS
*End Assembly
*Amplitude, name=InstantVacuum
             0.,              1.,              4.,              1.
** 
** MATERIALS
** 
*Material, name=Aluminum
*Conductivity
100.,
*Density
2300.,
*Elastic
 7e+10, 0.3
*Expansion
0.,
*Specific Heat
900.,
*Material, name=FakeSMA
*Conductivity
50.,
*Density
6450.,
*Elastic
 9e+10, 0.3
*Expansion
 0.0025,
*Specific Heat
800.,
** 
** PHYSICAL CONSTANTS
** 
*Physical Constants, absolute zero=0., stefan boltzmann=5.67e-08
** 
** PREDEFINED FIELDS
** 
** Name: Temp0   Type: Temperature Using Field: TempField_Initial
*Initial Conditions, type=TEMPERATURE
"SMAStrip (Nitinol)".1, 5.06989, 5.06989, 5.06989, 5.06989, 5.06989
"SMAStrip (Nitinol)".2, 5.06989, 5.06989, 5.06989, 5.06989, 5.06989
"SMAStrip (Nitinol)".3, 5.0699, 5.0699, 5.0699, 5.0699, 5.0699
"SMAStrip (Nitinol)".4, 5.06991, 5.06991, 5.06991, 5.06991, 5.06991
"SMAStrip (Nitinol)".5, 5.06991, 5.06991, 5.06991, 5.06991, 5.06991
"SMAStrip (Nitinol)".6, 5.06991, 5.06991, 5.06991, 5.06991, 5.06991
"SMAStrip (Nitinol)".7, 5.06991, 5.06991, 5.06991, 5.06991, 5.06991
"SMAStrip (Nitinol)".8, 5.06991, 5.06991, 5.06991, 5.06991, 5.06991
"SMAStrip (Nitinol)".9, 5.0699, 5.0699, 5.0699, 5.0699, 5.0699
"SMAStrip (Nitinol)".10, 5.06989, 5.06989, 5.06989, 5.06989, 5.06989
"SMAStrip (Nitinol)".11, 5.06984, 5.06984, 5.06984, 5.06984, 5.06984
"SMAStrip (Nitinol)".12, 5.06884, 5.06884, 5.06884, 5.06884, 5.06884
"SMAStrip (Nitinol)".13, 5.0688, 5.0688, 5.0688, 5.0688, 5.0688
"SMAStrip (Nitinol)".14, 5.06878, 5.06878, 5.06878, 5.06878, 5.06878
"SMAStrip (Nitinol)".15, 5.06878, 5.06878, 5.06878, 5.06878, 5.06878
"SMAStrip (Nitinol)".16, 5.06878, 5.06878, 5.06878, 5.06878, 5.06878
"SMAStrip (Nitinol)".17, 5.06877, 5.06877, 5.06877, 5.06877, 5.06877
"SMAStrip (Nitinol)".18, 5.06876, 5.06876, 5.06876, 5.06876, 5.06876
"SMAStrip (Nitinol)".19, 5.06876, 5.06876, 5.06876, 5.06876, 5.06876
"SMAStrip (Nitinol)".20, 5.06875, 5.06875, 5.06875, 5.06875, 5.06875
** ... 1124 like lines cut
** ----------------------------------------------------------------
** 
** STEP: Heat_04
** 
*Step, name=Heat_04, nlgeom=NO, inc=200
*Coupled Temperature-displacement, creep=none, deltmx=5.
0.1, 20., 4e-05, 5.
** 
** BOUNDARY CONDITIONS
** 
** Name: FixEdge Type: Symmetry/Antisymmetry/Encastre
*Boundary
Fixed-Set, ENCASTRE
** 
** LOADS
** 
** Name: Load_04   Type: Surface heat flux Using Field: AnalyticalField-1
*Dflux
"SMAStrip (Nitinol)".1, SPOS, 456.536
"SMAStrip (Nitinol)".2, SPOS, 456.976
"SMAStrip (Nitinol)".3, SPOS, 457.043
"SMAStrip (Nitinol)".4, SPOS, 456.825
"SMAStrip (Nitinol)".5, SPOS, 457.048
"SMAStrip (Nitinol)".6, SPOS, 457.089
"SMAStrip (Nitinol)".7, SPOS, 456.886
"SMAStrip (Nitinol)".8, SPOS, 457.052
"SMAStrip (Nitinol)".9, SPOS, 456.72
"SMAStrip (Nitinol)".10, SPOS, 456.624
"SMAStrip (Nitinol)".11, SPOS, 451.123
"SMAStrip (Nitinol)".12, SPOS, 451.097
"SMAStrip (Nitinol)".13, SPOS, 451.072
"SMAStrip (Nitinol)".14, SPOS, 451.044
"SMAStrip (Nitinol)".15, SPOS, 451.02
"SMAStrip (Nitinol)".16, SPOS, 450.995
"SMAStrip (Nitinol)".17, SPOS, 450.97
"SMAStrip (Nitinol)".18, SPOS, 450.945
"SMAStrip (Nitinol)".19, SPOS, 450.918
"SMAStrip (Nitinol)".20, SPOS, 450.913
** ... 759 like lines cut
** 
** INTERACTIONS
** 
** Interaction: ToVacuum
*Sradiate, amplitude=InstantVacuum
All-Surfaces, R, 4., 1.
** 
** OUTPUT REQUESTS
** 
*Restart, write, frequency=0
** 
** FIELD OUTPUT: F-Output-HFL
** 
*Output, field
*Element Output, directions=YES
HFL, 
** 
** FIELD OUTPUT: F-Output-1
** 
*Output, field, variable=PRESELECT
** 
** HISTORY OUTPUT: H-Output-1
** 
*Output, history, variable=PRESELECT
*End Step
