*Heading
 Iteration 6
** Job name: SMAHeatTransient_06 Model name: Model_06
** Generated by: Abaqus/CAE 2025
*Preprint, echo=NO, model=NO, history=NO, contact=NO
**
** PARTS
**
*Part, name="SMAStrip (Nitinol)"
*Node
      1,  0.921239913, 2.775537e-05, -0.380861312
      2,  0.921724558, 0.0100350194, -0.380339801
      3,  0.921680927, 0.0200431477, -0.380380183
      4,  0.921637356, 0.0300512742, -0.380420536
      5,  0.921593726, 0.0400594026, -0.380460888
      6,  0.921550095, 0.0500675291,  -0.38050124
      7,  0.921506524, 0.0600756556, -0.380541593
      8,  0.921462893, 0.0700837821, -0.380581945
      9,  0.921419322,  0.080091916, -0.380622298
     10,  0.921375692, 0.0901000425,  -0.38066268
     11,  0.920945525,  0.100105435, -0.381102324
     12,  0.914053977, 2.53819326e-05, -0.373952627
     13,  0.914043605,  0.010032759, -0.373942018
     14,  0.914038658, 0.0200406834, -0.373936594
     15,  0.914033771, 0.0300486051, -0.373931229
     16,  0.914028823, 0.0400565304, -0.373925835
     17,  0.914023936,  0.050064452, -0.373920411
     18,  0.914018989, 0.0600723773, -0.373915017
     19,  0.914014041, 0.0700803027, -0.373909622
     20,  0.914009154,  0.080088228, -0.373904228
** ... 1113 like lines cut
*Element, type=S4RT
   1,    1,    2,   13,   12
   2,    2,    3,   14,   13
   3,    3,    4,   15,   14
   4,    4,    5,   16,   15
   5,    5,    6,   17,   16
   6,    6,    7,   18,   17
   7,    7,    8,   19,   18
   8,    8,    9,   20,   19
   9,    9,   10,   21,   20
  10,   10,   11,   22,   21
  11,   12,   13,   24,   23
  12,   13,   14,   25,   24
  13,   14,   15,   26,   25
  14,   15,   16,   27,   26
  15,   16,   17,   28,   27
  16,   17,   18,   29,   28
  17,   18,   19,   30,   29
  18,   19,   20,   31,   30
  19,   20,   21,   32,   31
  20,   21,   22,   33,   32
** ... 1000 like lines cut
*Nset, nset=Set-1, generate
    1,  1133,     1
*Elset, elset=Set-1, generate
    1,  1020,     1
** Section: CompositeSection-1
*Shell Section, elset=Set-1, composite
0.0025, 3, Aluminum, 0., a
0.0025, 3, FakeSMA, 0., b
*End Part
**  
**
** ASSEMBLY
**
*Assembly, name=Assembly
**  
*Instance, name="SMAStrip (Nitinol)", part="SMAStrip (Nitinol)"
*End Instance
**  
*Nset, nset=Fixed-Set, instance="SMAStrip (Nitinol)", generate
 1124,  1132,     1
*Elset, elset=Fixed-Set, instance="SMAStrip (Nitinol)", generate
 1012,  1019,     1
*Nset, nset=Set-Temp, instance="SMAStrip (Nitinol)", generate
    1,  1133,     1
*Elset, elset=Set-Temp, instance="SMAStrip (Nitinol)", generate
    1,  1020,     1
*Elset, elset=_All-Surfaces_SPOS, internal, instance="SMAStrip (Nitinol)", generate
    1,  1020,     1
*Surface, type=ELEMENT, name=All-Surfaces
_All-Surfaces_SPOS, SPOS
*End Assembly
*Amplitude, name=InstantVacuum
             0.,              1.,              4.,              1.
** 
** MATERIALS
** 
*Material, name=Aluminum
*Conductivity
100.,
*Density
2300.,
*Elastic
 7e+10, 0.3
*Expansion
0.,
*Specific Heat
900.,
*Material, name=FakeSMA
*Conductivity
50.,
*Density
6450.,
*Elastic
 9e+10, 0.3
*Expansion
 0.0025,
*Specific Heat
800.,
** 
** PHYSICAL CONSTANTS
** 
*Physical Constants, absolute zero=0., stefan boltzmann=5.67e-08
** 
** PREDEFINED FIELDS
** 
** Name: Temp0   Type: Temperature Using Field: TempField_Initial
*Initial Conditions, type=TEMPERATURE
"SMAStrip (Nitinol)".1, 4.80788, 4.80788, 4.80788, 4.80788, 4.80788
"SMAStrip (Nitinol)".2, 4.80787, 4.80787, 4.80787, 4.80787, 4.80787
"SMAStrip (Nitinol)".3, 4.80714, 4.80714, 4.80714, 4.80714, 4.80714
"SMAStrip (Nitinol)".4, 4.80716, 4.80716, 4.80716, 4.80716, 4.80716
"SMAStrip (Nitinol)".5, 4.79303, 4.79303, 4.79303, 4.79303, 4.79303
"SMAStrip (Nitinol)".6, 4.74196, 4.74196, 4.74196, 4.74196, 4.74196
"SMAStrip (Nitinol)".7, 4.69421, 4.69421, 4.69421, 4.69421, 4.69421
"SMAStrip (Nitinol)".8, 4.69708, 4.69708, 4.69708, 4.69708, 4.69708
"SMAStrip (Nitinol)".9, 4.70633, 4.70633, 4.70633, 4.70633, 4.70633
"SMAStrip (Nitinol)".10, 4.68926, 4.68926, 4.68926, 4.68926, 4.68926
"SMAStrip (Nitinol)".11, 4.67586, 4.67586, 4.67586, 4.67586, 4.67586
"SMAStrip (Nitinol)".12, 4.80826, 4.80826, 4.80826, 4.80826, 4.80826
"SMAStrip (Nitinol)".13, 4.80826, 4.80826, 4.80826, 4.80826, 4.80826
"SMAStrip (Nitinol)".14, 4.80767, 4.80767, 4.80767, 4.80767, 4.80767
"SMAStrip (Nitinol)".15, 4.8076, 4.8076, 4.8076, 4.8076, 4.8076
"SMAStrip (Nitinol)".16, 4.79823, 4.79823, 4.79823, 4.79823, 4.79823
"SMAStrip (Nitinol)".17, 4.76373, 4.76373, 4.76373, 4.76373, 4.76373
"SMAStrip (Nitinol)".18, 4.72953, 4.72953, 4.72953, 4.72953, 4.72953
"SMAStrip (Nitinol)".19, 4.72535, 4.72535, 4.72535, 4.72535, 4.72535
"SMAStrip (Nitinol)".20, 4.72339, 4.72339, 4.72339, 4.72339, 4.72339
** ... 1113 like lines cut
** ----------------------------------------------------------------
** 
** STEP: Heat_06
** 
*Step, name=Heat_06, nlgeom=NO, inc=200
*Coupled Temperature-displacement, creep=none, deltmx=2.
0.5, 5., 4e-05, 5.
** 
** BOUNDARY CONDITIONS
** 
** Name: FixEdge Type: Symmetry/Antisymmetry/Encastre
*Boundary
Fixed-Set, ENCASTRE
** 
** LOADS
** 
** Name: Load_06   Type: Surface heat flux Using Field: AnalyticalField-1
*Dflux
"SMAStrip (Nitinol)".1, SPOS, 735.828
"SMAStrip (Nitinol)".2, SPOS, 735.823
"SMAStrip (Nitinol)".3, SPOS, 735.826
"SMAStrip (Nitinol)".4, SPOS, 735.828
"SMAStrip (Nitinol)".5, SPOS, 735.823
"SMAStrip (Nitinol)".6, SPOS, 735.825
"SMAStrip (Nitinol)".7, SPOS, 735.824
"SMAStrip (Nitinol)".8, SPOS, 735.828
"SMAStrip (Nitinol)".9, SPOS, 735.827
"SMAStrip (Nitinol)".10, SPOS, 735.828
"SMAStrip (Nitinol)".11, SPOS, 741.018
"SMAStrip (Nitinol)".12, SPOS, 741.023
"SMAStrip (Nitinol)".13, SPOS, 741.024
"SMAStrip (Nitinol)".14, SPOS, 741.023
"SMAStrip (Nitinol)".15, SPOS, 741.022
"SMAStrip (Nitinol)".16, SPOS, 741.024
"SMAStrip (Nitinol)".17, SPOS, 741.021
"SMAStrip (Nitinol)".18, SPOS, 741.023
"SMAStrip (Nitinol)".19, SPOS, 741.024
"SMAStrip (Nitinol)".20, SPOS, 741.023
** ... 1000 like lines cut
** 
** INTERACTIONS
** 
** Interaction: ToVacuum
*Sradiate, amplitude=InstantVacuum
All-Surfaces, R, 4., 1.
** 
** OUTPUT REQUESTS
** 
*Restart, write, frequency=0
** 
** FIELD OUTPUT: F-Output-1
** 
*Output, field, variable=PRESELECT
** 
** HISTORY OUTPUT: H-Output-1
** 
*Output, history, variable=PRESELECT
*End Step
