*Heading
 Iteration 10
** Job name: SMAHeatTransient_10 Model name: Model_10
** Generated by: Abaqus/CAE 2025
*Preprint, echo=NO, model=NO, history=NO, contact=NO
**
** PARTS
**
*Part, name="SMAStrip (Nitinol)"
*Node
      1,  0.739450097, -0.000640017388, -0.617301047
      2,   0.74174881, 0.00938683562, -0.616794288
      3,   0.74159354, 0.0194040556, -0.616840482
      4,  0.741438329, 0.0294212736, -0.616886675
      5,  0.741283119, 0.0394384935, -0.616932869
      6,  0.741127849, 0.0494557098, -0.616979122
      7,  0.740972638, 0.0594729297, -0.617025316
      8,  0.740817428, 0.0694901496, -0.617071509
      9,  0.740662217, 0.0795073658, -0.617117703
     10,  0.740506947, 0.0895245895, -0.617163897
     11,  0.738953292, 0.0995303616, -0.617527962
     12,  0.737232268, -0.000615385594, -0.607817233
     13,  0.737182498, 0.00939740986, -0.607838929
     14,  0.737128019, 0.0194131825, -0.607840955
     15,  0.737073541, 0.0294289533, -0.607843041
     16,  0.737019002, 0.0394447222, -0.607845008
     17,  0.736964524, 0.0494604968, -0.607847095
     18,  0.736910045, 0.0594762675, -0.607849061
     19,  0.736855567, 0.0694920421, -0.607851148
     20,  0.736801088, 0.0795078129, -0.607853174
** ... 1135 like lines cut
*Element, type=S4RT
   1,    1,    2,   13,   12
   2,    2,    3,   14,   13
   3,    3,    4,   15,   14
   4,    4,    5,   16,   15
   5,    5,    6,   17,   16
   6,    6,    7,   18,   17
   7,    7,    8,   19,   18
   8,    8,    9,   20,   19
   9,    9,   10,   21,   20
  10,   10,   11,   22,   21
  11,   12,   13,   24,   23
  12,   13,   14,   25,   24
  13,   14,   15,   26,   25
  14,   15,   16,   27,   26
  15,   16,   17,   28,   27
  16,   17,   18,   29,   28
  17,   18,   19,   30,   29
  18,   19,   20,   31,   30
  19,   20,   21,   32,   31
  20,   21,   22,   33,   32
** ... 1020 like lines cut
*Nset, nset=Set-1, generate
    1,  1155,     1
*Elset, elset=Set-1, generate
    1,  1040,     1
** Section: CompositeSection-1
*Shell Section, elset=Set-1, composite
0.0025, 3, Aluminum, 0., a
0.0025, 3, FakeSMA, 0., b
*End Part
**  
**
** ASSEMBLY
**
*Assembly, name=Assembly
**  
*Instance, name="SMAStrip (Nitinol)", part="SMAStrip (Nitinol)"
*End Instance
**  
*Nset, nset=Fixed-Set, instance="SMAStrip (Nitinol)", generate
 1146,  1154,     1
*Elset, elset=Fixed-Set, instance="SMAStrip (Nitinol)", generate
 1032,  1039,     1
*Nset, nset=Set-Temp, instance="SMAStrip (Nitinol)", generate
    1,  1155,     1
*Elset, elset=Set-Temp, instance="SMAStrip (Nitinol)", generate
    1,  1040,     1
*Elset, elset=_All-Surfaces_SPOS, internal, instance="SMAStrip (Nitinol)", generate
    1,  1040,     1
*Surface, type=ELEMENT, name=All-Surfaces
_All-Surfaces_SPOS, SPOS
*End Assembly
*Amplitude, name=InstantVacuum
             0.,              1.,              4.,              1.
** 
** MATERIALS
** 
*Material, name=Aluminum
*Conductivity
100.,
*Density
2300.,
*Elastic
 7e+10, 0.3
*Expansion
0.,
*Specific Heat
900.,
*Material, name=FakeSMA
*Conductivity
50.,
*Density
6450.,
*Elastic
 9e+10, 0.3
*Expansion
 0.0025,
*Specific Heat
800.,
** 
** PHYSICAL CONSTANTS
** 
*Physical Constants, absolute zero=0., stefan boltzmann=5.67e-08
** 
** PREDEFINED FIELDS
** 
** Name: Temp0   Type: Temperature Using Field: TempField_Initial
*Initial Conditions, type=TEMPERATURE
"SMAStrip (Nitinol)".1, 5.18835, 5.18835, 5.18835, 5.18835, 5.18835
"SMAStrip (Nitinol)".2, 5.18702, 5.18702, 5.18702, 5.18702, 5.18702
"SMAStrip (Nitinol)".3, 5.18361, 5.18361, 5.18361, 5.18361, 5.18361
"SMAStrip (Nitinol)".4, 5.17807, 5.17807, 5.17807, 5.17807, 5.17807
"SMAStrip (Nitinol)".5, 5.17045, 5.17045, 5.17045, 5.17045, 5.17045
"SMAStrip (Nitinol)".6, 5.16127, 5.16127, 5.16127, 5.16127, 5.16127
"SMAStrip (Nitinol)".7, 5.15151, 5.15151, 5.15151, 5.15151, 5.15151
"SMAStrip (Nitinol)".8, 5.14218, 5.14218, 5.14218, 5.14218, 5.14218
"SMAStrip (Nitinol)".9, 5.13462, 5.13462, 5.13462, 5.13462, 5.13462
"SMAStrip (Nitinol)".10, 5.13023, 5.13023, 5.13023, 5.13023, 5.13023
"SMAStrip (Nitinol)".11, 5.12863, 5.12863, 5.12863, 5.12863, 5.12863
"SMAStrip (Nitinol)".12, 5.1902, 5.1902, 5.1902, 5.1902, 5.1902
"SMAStrip (Nitinol)".13, 5.18891, 5.18891, 5.18891, 5.18891, 5.18891
"SMAStrip (Nitinol)".14, 5.18576, 5.18576, 5.18576, 5.18576, 5.18576
"SMAStrip (Nitinol)".15, 5.18053, 5.18053, 5.18053, 5.18053, 5.18053
"SMAStrip (Nitinol)".16, 5.17333, 5.17333, 5.17333, 5.17333, 5.17333
"SMAStrip (Nitinol)".17, 5.16463, 5.16463, 5.16463, 5.16463, 5.16463
"SMAStrip (Nitinol)".18, 5.15531, 5.15531, 5.15531, 5.15531, 5.15531
"SMAStrip (Nitinol)".19, 5.14641, 5.14641, 5.14641, 5.14641, 5.14641
"SMAStrip (Nitinol)".20, 5.13819, 5.13819, 5.13819, 5.13819, 5.13819
** ... 1135 like lines cut
** ----------------------------------------------------------------
** 
** STEP: Heat_10
** 
*Step, name=Heat_10, nlgeom=NO, inc=200
*Coupled Temperature-displacement, creep=none, deltmx=2.
0.5, 5., 4e-05, 5.
** 
** BOUNDARY CONDITIONS
** 
** Name: FixEdge Type: Symmetry/Antisymmetry/Encastre
*Boundary
Fixed-Set, ENCASTRE
** 
** LOADS
** 
** Name: Load_10   Type: Surface heat flux Using Field: AnalyticalField-1
*Dflux
"SMAStrip (Nitinol)".4, SPOS, 232.119
"SMAStrip (Nitinol)".5, SPOS, 232.227
"SMAStrip (Nitinol)".6, SPOS, 232.309
"SMAStrip (Nitinol)".7, SPOS, 232.318
"SMAStrip (Nitinol)".14, SPOS, 244.636
"SMAStrip (Nitinol)".15, SPOS, 244.661
"SMAStrip (Nitinol)".16, SPOS, 244.673
"SMAStrip (Nitinol)".17, SPOS, 244.682
"SMAStrip (Nitinol)".18, SPOS, 244.693
"SMAStrip (Nitinol)".19, SPOS, 244.707
"SMAStrip (Nitinol)".22, SPOS, 256.937
"SMAStrip (Nitinol)".23, SPOS, 256.938
"SMAStrip (Nitinol)".24, SPOS, 256.955
"SMAStrip (Nitinol)".25, SPOS, 256.936
"SMAStrip (Nitinol)".26, SPOS, 256.975
"SMAStrip (Nitinol)".27, SPOS, 256.985
"SMAStrip (Nitinol)".28, SPOS, 256.994
"SMAStrip (Nitinol)".29, SPOS, 257.006
"SMAStrip (Nitinol)".31, SPOS, 269.228
"SMAStrip (Nitinol)".32, SPOS, 269.187
** ... 1008 like lines cut
** 
** INTERACTIONS
** 
** Interaction: ToVacuum
*Sradiate, amplitude=InstantVacuum
All-Surfaces, R, 4., 1.
** 
** OUTPUT REQUESTS
** 
*Restart, write, frequency=0
** 
** FIELD OUTPUT: F-Output-1
** 
*Output, field, variable=PRESELECT
** 
** HISTORY OUTPUT: H-Output-1
** 
*Output, history, variable=PRESELECT
*End Step
