*Heading
 Iteration 7
** Job name: SMAHeatTransient_07 Model name: Model_07
** Generated by: Abaqus/CAE 2025
*Preprint, echo=NO, model=NO, history=NO, contact=NO
**
** PARTS
**
*Part, name="SMAStrip (Nitinol)"
*Node
      1,  0.869228542, 0.0999997258, -0.443424523
      2,   0.86140269, 0.0999979973, -0.436986953
      3,   0.85473001, 0.0999974236, -0.429537833
      4,  0.848001897, 0.0999970958, -0.422138035
      5,  0.841218174, 0.0999970138, -0.414787412
      6,  0.834379196, 0.0999971479, -0.407486409
      7,  0.827485383, 0.0999974981, -0.400235504
      8,   0.82053721,  0.099998042, -0.393035173
      9,  0.813534975, 0.0999987721, -0.385885835
     10,  0.806479156, 0.0999996588, -0.378787994
     11,   0.79937011,  0.100000694,  -0.37174204
     12,  0.792208254,  0.100001864, -0.364748418
     13,  0.784994125,  0.100003153, -0.357807636
     14,  0.777727962,  0.100004546, -0.350920051
     15,  0.770410359,  0.100006029, -0.344086111
     16,  0.763041675,  0.100007579, -0.337306261
     17,  0.755622327,  0.100009196,  -0.33058089
     18,  0.748152733,   0.10001085, -0.323910445
     19,  0.740633428,  0.100012533, -0.317295313
     20,  0.733064115,  0.100014232, -0.310735375
** ... 1091 like lines cut
*Element, type=S4RT
   1,    1,    2,  103,  102
   2,    2,    3,  104,  103
   3,    3,    4,  105,  104
   4,    4,    5,  106,  105
   5,    5,    6,  107,  106
   6,    6,    7,  108,  107
   7,    7,    8,  109,  108
   8,    8,    9,  110,  109
   9,    9,   10,  111,  110
  10,   10,   11,  112,  111
  11,   11,   12,  113,  112
  12,   12,   13,  114,  113
  13,   13,   14,  115,  114
  14,   14,   15,  116,  115
  15,   15,   16,  117,  116
  16,   16,   17,  118,  117
  17,   17,   18,  119,  118
  18,   18,   19,  120,  119
  19,   19,   20,  121,  120
  20,   20,   21,  122,  121
** ... 980 like lines cut
*Nset, nset=Set-1, generate
    1,  1111,     1
*Elset, elset=Set-1, generate
    1,  1000,     1
** Section: CompositeSection-1
*Shell Section, elset=Set-1, composite
0.0025, 3, Aluminum, 0., a
0.0025, 3, FakeSMA, 0., b
*End Part
**  
**
** ASSEMBLY
**
*Assembly, name=Assembly
**  
*Instance, name="SMAStrip (Nitinol)", part="SMAStrip (Nitinol)"
*End Instance
**  
*Nset, nset=Fixed-Set, instance="SMAStrip (Nitinol)"
  100,  101,  202,  303,  404,  505,  606,  707,  808,  909, 1010, 1111
*Elset, elset=Fixed-Set, instance="SMAStrip (Nitinol)", generate
  100,  1000,   100
*Nset, nset=Set-Temp, instance="SMAStrip (Nitinol)", generate
    1,  1111,     1
*Elset, elset=Set-Temp, instance="SMAStrip (Nitinol)", generate
    1,  1000,     1
*Elset, elset=_All-Surfaces_SPOS, internal, instance="SMAStrip (Nitinol)", generate
    1,  1000,     1
*Surface, type=ELEMENT, name=All-Surfaces
_All-Surfaces_SPOS, SPOS
*End Assembly
*Amplitude, name=InstantVacuum
             0.,              1.,              4.,              1.
** 
** MATERIALS
** 
*Material, name=Aluminum
*Conductivity
100.,
*Density
2300.,
*Elastic
 7e+10, 0.3
*Expansion
0.,
*Specific Heat
900.,
*Material, name=FakeSMA
*Conductivity
50.,
*Density
6450.,
*Elastic
 9e+10, 0.3
*Expansion
 0.0025,
*Specific Heat
800.,
** 
** PHYSICAL CONSTANTS
** 
*Physical Constants, absolute zero=0., stefan boltzmann=5.67e-08
** 
** PREDEFINED FIELDS
** 
** Name: Temp0   Type: Temperature Using Field: TempField_Initial
*Initial Conditions, type=TEMPERATURE
"SMAStrip (Nitinol)".1, 4.50369, 4.50369, 4.50369, 4.50369, 4.50369
"SMAStrip (Nitinol)".2, 4.50449, 4.50449, 4.50449, 4.50449, 4.50449
"SMAStrip (Nitinol)".3, 4.50671, 4.50671, 4.50671, 4.50671, 4.50671
"SMAStrip (Nitinol)".4, 4.51024, 4.51024, 4.51024, 4.51024, 4.51024
"SMAStrip (Nitinol)".5, 4.51476, 4.51476, 4.51476, 4.51476, 4.51476
"SMAStrip (Nitinol)".6, 4.52, 4.52, 4.52, 4.52, 4.52
"SMAStrip (Nitinol)".7, 4.52566, 4.52566, 4.52566, 4.52566, 4.52566
"SMAStrip (Nitinol)".8, 4.53155, 4.53155, 4.53155, 4.53155, 4.53155
"SMAStrip (Nitinol)".9, 4.5375, 4.5375, 4.5375, 4.5375, 4.5375
"SMAStrip (Nitinol)".10, 4.54342, 4.54342, 4.54342, 4.54342, 4.54342
"SMAStrip (Nitinol)".11, 4.54922, 4.54922, 4.54922, 4.54922, 4.54922
"SMAStrip (Nitinol)".12, 4.55481, 4.55481, 4.55481, 4.55481, 4.55481
"SMAStrip (Nitinol)".13, 4.5601, 4.5601, 4.5601, 4.5601, 4.5601
"SMAStrip (Nitinol)".14, 4.56496, 4.56496, 4.56496, 4.56496, 4.56496
"SMAStrip (Nitinol)".15, 4.56938, 4.56938, 4.56938, 4.56938, 4.56938
"SMAStrip (Nitinol)".16, 4.57353, 4.57353, 4.57353, 4.57353, 4.57353
"SMAStrip (Nitinol)".17, 4.57778, 4.57778, 4.57778, 4.57778, 4.57778
"SMAStrip (Nitinol)".18, 4.58263, 4.58263, 4.58263, 4.58263, 4.58263
"SMAStrip (Nitinol)".19, 4.58847, 4.58847, 4.58847, 4.58847, 4.58847
"SMAStrip (Nitinol)".20, 4.59539, 4.59539, 4.59539, 4.59539, 4.59539
** ... 1091 like lines cut
** ----------------------------------------------------------------
** 
** STEP: Heat_07
** 
*Step, name=Heat_07, nlgeom=YES, inc=200
*Coupled Temperature-displacement, creep=none, deltmx=5.
0.1, 15., 4e-05, 5.
** 
** BOUNDARY CONDITIONS
** 
** Name: FixEdge Type: Symmetry/Antisymmetry/Encastre
*Boundary
Fixed-Set, ENCASTRE
** 
** LOADS
** 
** Name: Load_07   Type: Surface heat flux Using Field: AnalyticalField-1
*Dflux
"SMAStrip (Nitinol)".44, SPOS, 5.16771
"SMAStrip (Nitinol)".45, SPOS, 5.16771
"SMAStrip (Nitinol)".46, SPOS, 5.16771
"SMAStrip (Nitinol)".47, SPOS, 27.454
"SMAStrip (Nitinol)".48, SPOS, 30.9722
"SMAStrip (Nitinol)".49, SPOS, 34.0303
"SMAStrip (Nitinol)".50, SPOS, 40.5058
"SMAStrip (Nitinol)".51, SPOS, 48.0792
"SMAStrip (Nitinol)".52, SPOS, 55.65
"SMAStrip (Nitinol)".53, SPOS, 63.2183
"SMAStrip (Nitinol)".54, SPOS, 70.7847
"SMAStrip (Nitinol)".55, SPOS, 78.3476
"SMAStrip (Nitinol)".56, SPOS, 84.9959
"SMAStrip (Nitinol)".57, SPOS, 94.3853
"SMAStrip (Nitinol)".58, SPOS, 100.98
"SMAStrip (Nitinol)".59, SPOS, 109.648
"SMAStrip (Nitinol)".60, SPOS, 116.533
"SMAStrip (Nitinol)".61, SPOS, 124.416
"SMAStrip (Nitinol)".62, SPOS, 131.117
"SMAStrip (Nitinol)".63, SPOS, 138.629
** ... 537 like lines cut
** 
** INTERACTIONS
** 
** Interaction: ToVacuum
*Sradiate, amplitude=InstantVacuum
All-Surfaces, R, 4., 1.
** 
** OUTPUT REQUESTS
** 
*Restart, write, frequency=0
** 
** FIELD OUTPUT: F-Output-HFL
** 
*Output, field
*Element Output, directions=YES
HFL, 
** 
** FIELD OUTPUT: F-Output-1
** 
*Output, field, variable=PRESELECT
** 
** HISTORY OUTPUT: H-Output-1
** 
*Output, history, variable=PRESELECT
*End Step
