*Heading
 Iteration 2
** Job name: SMAHeatTransient_02 Model name: Model_02
** Generated by: Abaqus/CAE 2025
*Preprint, echo=NO, model=NO, history=NO, contact=NO
**
** PARTS
**
*Part, name="SMAStrip (Nitinol)"
*Node
      1,  0.992345929, -9.8302271e-06, -0.109881021
      2,  0.992372096, 0.00999282207, -0.109758049
      3,  0.992372096, 0.0199954733, -0.109758049
      4,  0.992372096, 0.0299981255, -0.109758049
      5,  0.992372096, 0.0400007777, -0.109758049
      6,  0.992372096, 0.0500034317, -0.109758049
      7,  0.992372096, 0.0600060821, -0.109758049
      8,  0.992372096, 0.0700087324, -0.109758049
      9,  0.992372096, 0.0800113901, -0.109758049
     10,  0.992372096, 0.0900140405, -0.109758049
     11,  0.992344916,  0.100009829, -0.109880827
     12,  0.982576549, -1.02259573e-05, -0.107730173
     13,  0.982607126, 0.00999181904, -0.107587196
     14,  0.982607067,  0.019993864, -0.107587226
     15,  0.982607007, 0.0299959108, -0.107587248
     16,  0.982606947, 0.0399979539, -0.107587278
     17,  0.982606888, 0.0500000007, -0.107587308
     18,  0.982606888, 0.0600020476, -0.107587337
     19,  0.982606828, 0.0700040907, -0.107587367
     20,  0.982606828, 0.0800061375, -0.107587397
** ... 1091 like lines cut
*Element, type=S4RT
   1,    1,    2,   13,   12
   2,    2,    3,   14,   13
   3,    3,    4,   15,   14
   4,    4,    5,   16,   15
   5,    5,    6,   17,   16
   6,    6,    7,   18,   17
   7,    7,    8,   19,   18
   8,    8,    9,   20,   19
   9,    9,   10,   21,   20
  10,   10,   11,   22,   21
  11,   12,   13,   24,   23
  12,   13,   14,   25,   24
  13,   14,   15,   26,   25
  14,   15,   16,   27,   26
  15,   16,   17,   28,   27
  16,   17,   18,   29,   28
  17,   18,   19,   30,   29
  18,   19,   20,   31,   30
  19,   20,   21,   32,   31
  20,   21,   22,   33,   32
** ... 980 like lines cut
*Nset, nset=Set-1, generate
    1,  1111,     1
*Elset, elset=Set-1, generate
    1,  1000,     1
** Section: CompositeSection-1
*Shell Section, elset=Set-1, composite
0.0025, 3, Aluminum, 0., a
0.0025, 3, FakeSMA, 0., b
*End Part
**  
**
** ASSEMBLY
**
*Assembly, name=Assembly
**  
*Instance, name="SMAStrip (Nitinol)", part="SMAStrip (Nitinol)"
*End Instance
**  
*Nset, nset=Fixed-Set, instance="SMAStrip (Nitinol)", generate
 1101,  1111,     1
*Elset, elset=Fixed-Set, instance="SMAStrip (Nitinol)", generate
  991,  1000,     1
*Nset, nset=Set-Temp, instance="SMAStrip (Nitinol)", generate
    1,  1111,     1
*Elset, elset=Set-Temp, instance="SMAStrip (Nitinol)", generate
    1,  1000,     1
*Elset, elset=_All-Surfaces_SPOS, internal, instance="SMAStrip (Nitinol)", generate
    1,  1000,     1
*Surface, type=ELEMENT, name=All-Surfaces
_All-Surfaces_SPOS, SPOS
*End Assembly
*Amplitude, name=InstantVacuum
             0.,              1.,              4.,              1.
** 
** MATERIALS
** 
*Material, name=Aluminum
*Conductivity
100.,
*Density
2300.,
*Elastic
 7e+10, 0.3
*Expansion
0.,
*Specific Heat
900.,
*Material, name=FakeSMA
*Conductivity
50.,
*Density
6450.,
*Elastic
 9e+10, 0.3
*Expansion
 0.0025,
*Specific Heat
800.,
** 
** PHYSICAL CONSTANTS
** 
*Physical Constants, absolute zero=0., stefan boltzmann=5.67e-08
** 
** PREDEFINED FIELDS
** 
** Name: Temp0   Type: Temperature Using Field: TempField_Initial
*Initial Conditions, type=TEMPERATURE
"SMAStrip (Nitinol)".1, 4.27292, 4.27292, 4.27292, 4.27292, 4.27292
"SMAStrip (Nitinol)".2, 4.27292, 4.27292, 4.27292, 4.27292, 4.27292
"SMAStrip (Nitinol)".3, 4.27292, 4.27292, 4.27292, 4.27292, 4.27292
"SMAStrip (Nitinol)".4, 4.27292, 4.27292, 4.27292, 4.27292, 4.27292
"SMAStrip (Nitinol)".5, 4.27292, 4.27292, 4.27292, 4.27292, 4.27292
"SMAStrip (Nitinol)".6, 4.27292, 4.27292, 4.27292, 4.27292, 4.27292
"SMAStrip (Nitinol)".7, 4.27292, 4.27292, 4.27292, 4.27292, 4.27292
"SMAStrip (Nitinol)".8, 4.27292, 4.27292, 4.27292, 4.27292, 4.27292
"SMAStrip (Nitinol)".9, 4.27292, 4.27292, 4.27292, 4.27292, 4.27292
"SMAStrip (Nitinol)".10, 4.27292, 4.27292, 4.27292, 4.27292, 4.27292
"SMAStrip (Nitinol)".11, 4.27292, 4.27292, 4.27292, 4.27292, 4.27292
"SMAStrip (Nitinol)".12, 4.27292, 4.27292, 4.27292, 4.27292, 4.27292
"SMAStrip (Nitinol)".13, 4.27292, 4.27292, 4.27292, 4.27292, 4.27292
"SMAStrip (Nitinol)".14, 4.27292, 4.27292, 4.27292, 4.27292, 4.27292
"SMAStrip (Nitinol)".15, 4.27292, 4.27292, 4.27292, 4.27292, 4.27292
"SMAStrip (Nitinol)".16, 4.27292, 4.27292, 4.27292, 4.27292, 4.27292
"SMAStrip (Nitinol)".17, 4.27292, 4.27292, 4.27292, 4.27292, 4.27292
"SMAStrip (Nitinol)".18, 4.27292, 4.27292, 4.27292, 4.27292, 4.27292
"SMAStrip (Nitinol)".19, 4.27292, 4.27292, 4.27292, 4.27292, 4.27292
"SMAStrip (Nitinol)".20, 4.27292, 4.27292, 4.27292, 4.27292, 4.27292
** ... 1091 like lines cut
** ----------------------------------------------------------------
** 
** STEP: Heat_02
** 
*Step, name=Heat_02, nlgeom=YES, inc=200
*Coupled Temperature-displacement, creep=none, deltmx=5.
0.1, 15., 4e-05, 5.
** 
** BOUNDARY CONDITIONS
** 
** Name: FixEdge Type: Symmetry/Antisymmetry/Encastre
*Boundary
Fixed-Set, ENCASTRE
** 
** LOADS
** 
** Name: Load_02   Type: Surface heat flux Using Field: AnalyticalField-1
*Dflux
"SMAStrip (Nitinol)".1, SPOS, 308.229
"SMAStrip (Nitinol)".2, SPOS, 308.229
"SMAStrip (Nitinol)".3, SPOS, 308.229
"SMAStrip (Nitinol)".4, SPOS, 308.229
"SMAStrip (Nitinol)".5, SPOS, 308.229
"SMAStrip (Nitinol)".6, SPOS, 308.228
"SMAStrip (Nitinol)".7, SPOS, 308.228
"SMAStrip (Nitinol)".8, SPOS, 308.228
"SMAStrip (Nitinol)".9, SPOS, 308.228
"SMAStrip (Nitinol)".10, SPOS, 308.228
"SMAStrip (Nitinol)".11, SPOS, 310.325
"SMAStrip (Nitinol)".12, SPOS, 310.325
"SMAStrip (Nitinol)".13, SPOS, 310.325
"SMAStrip (Nitinol)".14, SPOS, 310.324
"SMAStrip (Nitinol)".15, SPOS, 310.324
"SMAStrip (Nitinol)".16, SPOS, 310.324
"SMAStrip (Nitinol)".17, SPOS, 310.324
"SMAStrip (Nitinol)".18, SPOS, 310.324
"SMAStrip (Nitinol)".19, SPOS, 310.324
"SMAStrip (Nitinol)".20, SPOS, 310.323
** ... 980 like lines cut
** 
** INTERACTIONS
** 
** Interaction: ToVacuum
*Sradiate, amplitude=InstantVacuum
All-Surfaces, R, 4., 1.
** 
** OUTPUT REQUESTS
** 
*Restart, write, frequency=0
** 
** FIELD OUTPUT: F-Output-HFL
** 
*Output, field
*Element Output, directions=YES
HFL, 
** 
** FIELD OUTPUT: F-Output-1
** 
*Output, field, variable=PRESELECT
** 
** HISTORY OUTPUT: H-Output-1
** 
*Output, history, variable=PRESELECT
*End Step
