*Heading
 Iteration 4
** Job name: SMAHeatTransient_04 Model name: Model_04
** Generated by: Abaqus/CAE 2025
*Preprint, echo=NO, model=NO, history=NO, contact=NO
**
** PARTS
**
*Part, name="SMAStrip (Nitinol)"
*Node
      1, 6.2827683e-05,  0.100022748, 0.00202019257
      2,           0., 0.0900193006,           0.
      3,           0., 0.0800162107,           0.
      4,           0., 0.0700131282,           0.
      5,           0.,  0.060010042,           0.
      6,           0., 0.0500069559,           0.
      7,           0., 0.0400038697,           0.
      8,           0., 0.0300007835,           0.
      9,           0., 0.0199976992,           0.
     10,           0., 0.00999461301,           0.
     11, 5.35180225e-05, -2.22643139e-05, 0.00203842996
     12, 0.0100500789,  0.100032285, 0.00168355682
     13, 0.0100525049, 0.0900270119, 0.00168523414
     14, 0.0100549329, 0.0800217465, 0.00168691133
     15, 0.0100573627, 0.0700164661, 0.00168858841
     16, 0.0100597953, 0.0600111969, 0.00169026537
     17, 0.0100622298,  0.050005924, 0.00169194222
     18,  0.010064668, 0.0400006548, 0.00169361895
     19, 0.0100671081,   0.02999538, 0.00169529545
     20,   0.01006955, 0.0199901089, 0.00169697194
** ... 1091 like lines cut
*Element, type=S4RT
   1,    1,    2,   13,   12
   2,    2,    3,   14,   13
   3,    3,    4,   15,   14
   4,    4,    5,   16,   15
   5,    5,    6,   17,   16
   6,    6,    7,   18,   17
   7,    7,    8,   19,   18
   8,    8,    9,   20,   19
   9,    9,   10,   21,   20
  10,   10,   11,   22,   21
  11,   12,   13,   24,   23
  12,   13,   14,   25,   24
  13,   14,   15,   26,   25
  14,   15,   16,   27,   26
  15,   16,   17,   28,   27
  16,   17,   18,   29,   28
  17,   18,   19,   30,   29
  18,   19,   20,   31,   30
  19,   20,   21,   32,   31
  20,   21,   22,   33,   32
** ... 980 like lines cut
*Nset, nset=Set-1, generate
    1,  1111,     1
*Elset, elset=Set-1, generate
    1,  1000,     1
** Section: CompositeSection-1
*Shell Section, elset=Set-1, composite
0.0025, 3, Aluminum, 0., a
0.0025, 3, FakeSMA, 0., b
*End Part
**  
**
** ASSEMBLY
**
*Assembly, name=Assembly
**  
*Instance, name="SMAStrip (Nitinol)", part="SMAStrip (Nitinol)"
*End Instance
**  
*Nset, nset=Fixed-Set, instance="SMAStrip (Nitinol)", generate
  1,  11,   1
*Elset, elset=Fixed-Set, instance="SMAStrip (Nitinol)", generate
  1,  10,   1
*Nset, nset=Set-Temp, instance="SMAStrip (Nitinol)", generate
    1,  1111,     1
*Elset, elset=Set-Temp, instance="SMAStrip (Nitinol)", generate
    1,  1000,     1
*Elset, elset=_All-Surfaces_SPOS, internal, instance="SMAStrip (Nitinol)", generate
    1,  1000,     1
*Surface, type=ELEMENT, name=All-Surfaces
_All-Surfaces_SPOS, SPOS
*End Assembly
*Amplitude, name=InstantVacuum
             0.,              1.,              4.,              1.
** 
** MATERIALS
** 
*Material, name=Aluminum
*Conductivity
100.,
*Density
2300.,
*Elastic
 7e+10, 0.3
*Expansion
0.,
*Specific Heat
900.,
*Material, name=FakeSMA
*Conductivity
50.,
*Density
6450.,
*Elastic
 9e+10, 0.3
*Expansion
 0.0025,
*Specific Heat
800.,
** 
** PHYSICAL CONSTANTS
** 
*Physical Constants, absolute zero=0., stefan boltzmann=5.67e-08
** 
** PREDEFINED FIELDS
** 
** Name: Temp0   Type: Temperature Using Field: TempField_Initial
*Initial Conditions, type=TEMPERATURE
"SMAStrip (Nitinol)".1, 4.80689, 4.80689, 4.80689, 4.80689, 4.80689
"SMAStrip (Nitinol)".2, 4.80694, 4.80694, 4.80694, 4.80694, 4.80694
"SMAStrip (Nitinol)".3, 4.80701, 4.80701, 4.80701, 4.80701, 4.80701
"SMAStrip (Nitinol)".4, 4.80705, 4.80705, 4.80705, 4.80705, 4.80705
"SMAStrip (Nitinol)".5, 4.80706, 4.80706, 4.80706, 4.80706, 4.80706
"SMAStrip (Nitinol)".6, 4.80706, 4.80706, 4.80706, 4.80706, 4.80706
"SMAStrip (Nitinol)".7, 4.80706, 4.80706, 4.80706, 4.80706, 4.80706
"SMAStrip (Nitinol)".8, 4.80706, 4.80706, 4.80706, 4.80706, 4.80706
"SMAStrip (Nitinol)".9, 4.80706, 4.80706, 4.80706, 4.80706, 4.80706
"SMAStrip (Nitinol)".10, 4.80705, 4.80705, 4.80705, 4.80705, 4.80705
"SMAStrip (Nitinol)".11, 4.80704, 4.80704, 4.80704, 4.80704, 4.80704
"SMAStrip (Nitinol)".12, 4.80627, 4.80627, 4.80627, 4.80627, 4.80627
"SMAStrip (Nitinol)".13, 4.80628, 4.80628, 4.80628, 4.80628, 4.80628
"SMAStrip (Nitinol)".14, 4.80633, 4.80633, 4.80633, 4.80633, 4.80633
"SMAStrip (Nitinol)".15, 4.80635, 4.80635, 4.80635, 4.80635, 4.80635
"SMAStrip (Nitinol)".16, 4.80636, 4.80636, 4.80636, 4.80636, 4.80636
"SMAStrip (Nitinol)".17, 4.80636, 4.80636, 4.80636, 4.80636, 4.80636
"SMAStrip (Nitinol)".18, 4.80636, 4.80636, 4.80636, 4.80636, 4.80636
"SMAStrip (Nitinol)".19, 4.80636, 4.80636, 4.80636, 4.80636, 4.80636
"SMAStrip (Nitinol)".20, 4.80636, 4.80636, 4.80636, 4.80636, 4.80636
** ... 1091 like lines cut
** ----------------------------------------------------------------
** 
** STEP: Heat_04
** 
*Step, name=Heat_04, nlgeom=YES, inc=200
*Coupled Temperature-displacement, creep=none, deltmx=5.
0.1, 15., 4e-05, 5.
** 
** BOUNDARY CONDITIONS
** 
** Name: FixEdge Type: Symmetry/Antisymmetry/Encastre
*Boundary
Fixed-Set, ENCASTRE
** 
** LOADS
** 
** Name: Load_04   Type: Surface heat flux Using Field: Flux_Field_4
*Dflux
"SMAStrip (Nitinol)".1, SPOS, 479.529
"SMAStrip (Nitinol)".2, SPOS, 480.369
"SMAStrip (Nitinol)".3, SPOS, 480.232
"SMAStrip (Nitinol)".4, SPOS, 480.345
"SMAStrip (Nitinol)".5, SPOS, 480.35
"SMAStrip (Nitinol)".6, SPOS, 480.384
"SMAStrip (Nitinol)".7, SPOS, 480.381
"SMAStrip (Nitinol)".8, SPOS, 480.377
"SMAStrip (Nitinol)".9, SPOS, 480.338
"SMAStrip (Nitinol)".10, SPOS, 480.271
"SMAStrip (Nitinol)".11, SPOS, 475.601
"SMAStrip (Nitinol)".12, SPOS, 475.599
"SMAStrip (Nitinol)".13, SPOS, 475.595
"SMAStrip (Nitinol)".14, SPOS, 475.59
"SMAStrip (Nitinol)".15, SPOS, 475.586
"SMAStrip (Nitinol)".16, SPOS, 475.583
"SMAStrip (Nitinol)".17, SPOS, 475.579
"SMAStrip (Nitinol)".18, SPOS, 475.575
"SMAStrip (Nitinol)".19, SPOS, 475.571
"SMAStrip (Nitinol)".20, SPOS, 475.569
** ... 936 like lines cut
** 
** INTERACTIONS
** 
** Interaction: ToVacuum
*Sradiate, amplitude=InstantVacuum
All-Surfaces, R, 4., 0.75
** 
** OUTPUT REQUESTS
** 
*Restart, write, frequency=0
** 
** FIELD OUTPUT: F-Output-HFL
** 
*Output, field
*Element Output, directions=YES
HFL, 
** 
** FIELD OUTPUT: F-Output-1
** 
*Output, field, variable=PRESELECT
** 
** HISTORY OUTPUT: H-Output-1
** 
*Output, history, variable=PRESELECT
*End Step
