*Heading
 Iteration 6
** Job name: SMAHeatTransient_06 Model name: Model_06
** Generated by: Abaqus/CAE 2025
*Preprint, echo=NO, model=NO, history=NO, contact=NO
**
** PARTS
**
*Part, name="SMAStrip (Nitinol)"
*Node
      1,  0.848313451, -5.93198274e-05, -0.474418551
      2,  0.849868476, 0.00994761381,  -0.47316578
      3,  0.849832296, 0.0199523941, -0.473135591
      4,  0.849796116, 0.0299571753, -0.473105431
      5,  0.849759936, 0.0399619564, -0.473075241
      6,  0.849723756, 0.0499667339, -0.473045051
      7,  0.849687517, 0.0599715151, -0.473014861
      8,  0.849651337,    0.0699763, -0.472984672
      9,  0.849615157, 0.0799810737, -0.472954512
     10,  0.849578977, 0.0899858549, -0.472924322
     11,  0.847953498, 0.0999887511,  -0.47412625
     12,  0.842154205, -5.77053943e-05,  -0.46653387
     13,   0.84213984, 0.00994708017, -0.466532469
     14,  0.842103779, 0.0199518185, -0.466503561
     15,  0.842067719,  0.029956555, -0.466474622
     16,  0.842031658, 0.0399612933, -0.466445684
     17,  0.841995537, 0.0499660298, -0.466416746
     18,  0.841959476, 0.0599707663, -0.466387838
     19,  0.841923416, 0.0699755028,  -0.46635893
     20,  0.841887355, 0.0799802393, -0.466329992
** ... 1091 like lines cut
*Element, type=S4RT
   1,    1,    2,   13,   12
   2,    2,    3,   14,   13
   3,    3,    4,   15,   14
   4,    4,    5,   16,   15
   5,    5,    6,   17,   16
   6,    6,    7,   18,   17
   7,    7,    8,   19,   18
   8,    8,    9,   20,   19
   9,    9,   10,   21,   20
  10,   10,   11,   22,   21
  11,   12,   13,   24,   23
  12,   13,   14,   25,   24
  13,   14,   15,   26,   25
  14,   15,   16,   27,   26
  15,   16,   17,   28,   27
  16,   17,   18,   29,   28
  17,   18,   19,   30,   29
  18,   19,   20,   31,   30
  19,   20,   21,   32,   31
  20,   21,   22,   33,   32
** ... 980 like lines cut
*Nset, nset=Set-1, generate
    1,  1111,     1
*Elset, elset=Set-1, generate
    1,  1000,     1
** Section: CompositeSection-1
*Shell Section, elset=Set-1, composite
0.0025, 3, Aluminum, 0., a
0.0025, 3, FakeSMA, 0., b
*End Part
**  
**
** ASSEMBLY
**
*Assembly, name=Assembly
**  
*Instance, name="SMAStrip (Nitinol)", part="SMAStrip (Nitinol)"
*End Instance
**  
*Nset, nset=Fixed-Set, instance="SMAStrip (Nitinol)", generate
 1101,  1111,     1
*Elset, elset=Fixed-Set, instance="SMAStrip (Nitinol)", generate
  991,  1000,     1
*Nset, nset=Set-Temp, instance="SMAStrip (Nitinol)", generate
    1,  1111,     1
*Elset, elset=Set-Temp, instance="SMAStrip (Nitinol)", generate
    1,  1000,     1
*Elset, elset=_All-Surfaces_SPOS, internal, instance="SMAStrip (Nitinol)", generate
    1,  1000,     1
*Surface, type=ELEMENT, name=All-Surfaces
_All-Surfaces_SPOS, SPOS
*End Assembly
*Amplitude, name=InstantVacuum
             0.,              1.,              4.,              1.
** 
** MATERIALS
** 
*Material, name=Aluminum
*Conductivity
100.,
*Density
2300.,
*Elastic
 7e+10, 0.3
*Expansion
0.,
*Specific Heat
900.,
*Material, name=FakeSMA
*Conductivity
50.,
*Density
6450.,
*Elastic
 9e+10, 0.3
*Expansion
 0.0025,
*Specific Heat
800.,
** 
** PHYSICAL CONSTANTS
** 
*Physical Constants, absolute zero=0., stefan boltzmann=5.67e-08
** 
** PREDEFINED FIELDS
** 
** Name: Temp0   Type: Temperature Using Field: TempField_Initial
*Initial Conditions, type=TEMPERATURE
"SMAStrip (Nitinol)".1, 4.56124, 4.56124, 4.56124, 4.56124, 4.56124
"SMAStrip (Nitinol)".2, 4.56124, 4.56124, 4.56124, 4.56124, 4.56124
"SMAStrip (Nitinol)".3, 4.56122, 4.56122, 4.56122, 4.56122, 4.56122
"SMAStrip (Nitinol)".4, 4.5612, 4.5612, 4.5612, 4.5612, 4.5612
"SMAStrip (Nitinol)".5, 4.56115, 4.56115, 4.56115, 4.56115, 4.56115
"SMAStrip (Nitinol)".6, 4.56108, 4.56108, 4.56108, 4.56108, 4.56108
"SMAStrip (Nitinol)".7, 4.56099, 4.56099, 4.56099, 4.56099, 4.56099
"SMAStrip (Nitinol)".8, 4.56089, 4.56089, 4.56089, 4.56089, 4.56089
"SMAStrip (Nitinol)".9, 4.5608, 4.5608, 4.5608, 4.5608, 4.5608
"SMAStrip (Nitinol)".10, 4.56074, 4.56074, 4.56074, 4.56074, 4.56074
"SMAStrip (Nitinol)".11, 4.56072, 4.56072, 4.56072, 4.56072, 4.56072
"SMAStrip (Nitinol)".12, 4.56185, 4.56185, 4.56185, 4.56185, 4.56185
"SMAStrip (Nitinol)".13, 4.56193, 4.56193, 4.56193, 4.56193, 4.56193
"SMAStrip (Nitinol)".14, 4.56184, 4.56184, 4.56184, 4.56184, 4.56184
"SMAStrip (Nitinol)".15, 4.56181, 4.56181, 4.56181, 4.56181, 4.56181
"SMAStrip (Nitinol)".16, 4.56176, 4.56176, 4.56176, 4.56176, 4.56176
"SMAStrip (Nitinol)".17, 4.56169, 4.56169, 4.56169, 4.56169, 4.56169
"SMAStrip (Nitinol)".18, 4.5616, 4.5616, 4.5616, 4.5616, 4.5616
"SMAStrip (Nitinol)".19, 4.5615, 4.5615, 4.5615, 4.5615, 4.5615
"SMAStrip (Nitinol)".20, 4.56141, 4.56141, 4.56141, 4.56141, 4.56141
** ... 1091 like lines cut
** ----------------------------------------------------------------
** 
** STEP: Heat_06
** 
*Step, name=Heat_06, nlgeom=YES, inc=200
*Coupled Temperature-displacement, creep=none, deltmx=5.
0.1, 20., 4e-05, 5.
** 
** BOUNDARY CONDITIONS
** 
** Name: FixEdge Type: Symmetry/Antisymmetry/Encastre
*Boundary
Fixed-Set, ENCASTRE
** 
** LOADS
** 
** Name: Load_06   Type: Surface heat flux Using Field: AnalyticalField-1
*Dflux
"SMAStrip (Nitinol)".380, SPOS, -79.7968
"SMAStrip (Nitinol)".389, SPOS, -79.7968
"SMAStrip (Nitinol)".390, SPOS, -79.7968
"SMAStrip (Nitinol)".399, SPOS, -79.7968
"SMAStrip (Nitinol)".400, SPOS, -79.7968
"SMAStrip (Nitinol)".409, SPOS, -79.7968
"SMAStrip (Nitinol)".410, SPOS, -79.7968
"SMAStrip (Nitinol)".411, SPOS, -53.5955
"SMAStrip (Nitinol)".412, SPOS, -53.5943
"SMAStrip (Nitinol)".419, SPOS, -54.2928
"SMAStrip (Nitinol)".420, SPOS, -54.2949
"SMAStrip (Nitinol)".421, SPOS, -53.5871
"SMAStrip (Nitinol)".422, SPOS, -53.5928
"SMAStrip (Nitinol)".429, SPOS, -54.292
"SMAStrip (Nitinol)".430, SPOS, -54.2997
"SMAStrip (Nitinol)".431, SPOS, -51.0722
"SMAStrip (Nitinol)".432, SPOS, -53.593
"SMAStrip (Nitinol)".439, SPOS, -49.0697
"SMAStrip (Nitinol)".440, SPOS, -49.4546
"SMAStrip (Nitinol)".441, SPOS, -38.5506
** ... 519 like lines cut
** 
** INTERACTIONS
** 
** Interaction: ToVacuum
*Sradiate, amplitude=InstantVacuum
All-Surfaces, R, 4., 0.75
** 
** OUTPUT REQUESTS
** 
*Restart, write, frequency=0
** 
** FIELD OUTPUT: F-Output-HFL
** 
*Output, field
*Element Output, directions=YES
HFL, 
** 
** FIELD OUTPUT: F-Output-1
** 
*Output, field, variable=PRESELECT
** 
** HISTORY OUTPUT: H-Output-1
** 
*Output, history, variable=PRESELECT
*End Step
