*Heading
 Iteration 18
** Job name: SMAHeatTransient_18 Model name: Model_18
** Generated by: Abaqus/CAE 2025
*Preprint, echo=NO, model=NO, history=NO, contact=NO
**
** PARTS
**
*Part, name="SMAStrip (Nitinol)"
*Node
      1,  0.987040937, 0.00852795504, -0.168755665
      2,  0.987042487,  0.018691076, -0.168753415
      3,  0.987043977, 0.0288541969,  -0.16875118
      4,  0.987045527, 0.0390173197,  -0.16874893
      5,  0.987047017, 0.0491804406, -0.168746695
      6,  0.987048566, 0.0593435615, -0.168744445
      7,  0.987050116, 0.0695066825,  -0.16874221
      8,  0.987051606, 0.0796698034,  -0.16873996
      9,  0.987053156, 0.0898329243, -0.168737724
     10,  0.987048864, -0.00163516833,  -0.16875267
     11,  0.987054646, 0.0999960452, -0.168735474
     12,  0.977421284,  0.100978903, -0.165917382
     13,  0.967813849,  0.101026647, -0.162999585
     14,  0.958198905,  0.101073503, -0.160106808
     15,   0.94857645,  0.101119474, -0.157239035
     16,  0.938946545,  0.101164564,  -0.15439631
     17,  0.929309309,  0.101208761, -0.151578635
     18,  0.919664741,  0.101252064, -0.148786053
     19,   0.91001296,  0.101294488,  -0.14601855
     20,  0.900354028,  0.101336017, -0.143276155
** ... 1185 like lines cut
*Element, type=S3T
 1,  543,  602,  750
 2,  649,  811,  755
 3,  497, 1136, 1145
 4,  562,  561,  624
 5,  511,  729,  563
 6, 1147, 1203,  700
 7,  430,  536,  485
 8,  595,  429,  484
 9,  472,  636,  520
10,  470,  515,  577
11,  619,  505,  558
12,  609,  744,  657
13,  441,  440,  492
14,  915,  916,  861
15,  527,  368,  421
16, 1200,  384,  439
17,  369,  529,  423
18,  615,  501,  736
19,  717,  630,  718
20,  584,  709,  640
** ... 12 like lines cut
*Element, type=S4RT
  33,  917,  916,   16,   17
  34,   17,   18,  918,  917
  35, 1185,  916,  917,  813
  36,  813,  651,  756, 1185
  37,  650,  756,  750,  602
  38,  490,  543,  750,  603
  39,  543,  437,  489,  602
  40,  490, 1187,  437,  543
  41,  326,  437, 1187, 1186
  42,  326, 1186,  275,  271
  43,  274,  326,  271,  216
  44,  274,  216,  217,  273
  45,  273,  217,  218, 1121
  46,  274, 1181,  325,  382
  47,  541,  542,  488,  435
  48,  488,  489,  436,  435
  49,  602,  489,  488,  751
  50,  648,  649,  601,  600
  51,  751,  755,  650,  602
  52,  755,  811,  812,  650
** ... 1058 like lines cut
*Nset, nset=Set-1, generate
    1,  1205,     1
*Elset, elset=Set-1, generate
    1,  1110,     1
** Section: CompositeSection-1
*Shell Section, elset=Set-1, composite
0.0025, 3, Aluminum, 0., a
0.0025, 3, FakeSMA, 0., b
*End Part
**  
**
** ASSEMBLY
**
*Assembly, name=Assembly
**  
*Instance, name="SMAStrip (Nitinol)", part="SMAStrip (Nitinol)"
*End Instance
**  
*Nset, nset=Fixed-Set, instance="SMAStrip (Nitinol)", generate
 111,  121,    1
*Elset, elset=Fixed-Set, instance="SMAStrip (Nitinol)"
  401,  402,  403,  412,  413,  417,  418,  420,  991, 1083
*Nset, nset=Set-Temp, instance="SMAStrip (Nitinol)", generate
    1,  1205,     1
*Elset, elset=Set-Temp, instance="SMAStrip (Nitinol)", generate
    1,  1110,     1
*Elset, elset=_All-Surfaces_SPOS, internal, instance="SMAStrip (Nitinol)", generate
    1,  1110,     1
*Surface, type=ELEMENT, name=All-Surfaces
_All-Surfaces_SPOS, SPOS
*End Assembly
*Amplitude, name=InstantVacuum
             0.,              1.,              4.,              1.
** 
** MATERIALS
** 
*Material, name=Aluminum
*Conductivity
100.,
*Density
2300.,
*Elastic
 7e+10, 0.3
*Expansion
0.,
*Specific Heat
900.,
*Material, name=FakeSMA
*Conductivity
50.,
*Density
6450.,
*Elastic
 9e+10, 0.3
*Expansion
 0.0025,
*Specific Heat
800.,
** 
** PHYSICAL CONSTANTS
** 
*Physical Constants, absolute zero=0., stefan boltzmann=5.67e-08
** 
** PREDEFINED FIELDS
** 
** Name: Temp0   Type: Temperature Using Field: TempField_Initial
*Initial Conditions, type=TEMPERATURE
"SMAStrip (Nitinol)".1, 6.14918, 6.14918, 6.14918, 6.14918, 6.14918
"SMAStrip (Nitinol)".2, 6.16182, 6.16182, 6.16182, 6.16182, 6.16182
"SMAStrip (Nitinol)".3, 6.17854, 6.17854, 6.17854, 6.17854, 6.17854
"SMAStrip (Nitinol)".4, 6.19188, 6.19188, 6.19188, 6.19188, 6.19188
"SMAStrip (Nitinol)".5, 6.19655, 6.19655, 6.19655, 6.19655, 6.19655
"SMAStrip (Nitinol)".6, 6.19191, 6.19191, 6.19191, 6.19191, 6.19191
"SMAStrip (Nitinol)".7, 6.18, 6.18, 6.18, 6.18, 6.18
"SMAStrip (Nitinol)".8, 6.16256, 6.16256, 6.16256, 6.16256, 6.16256
"SMAStrip (Nitinol)".9, 6.14865, 6.14865, 6.14865, 6.14865, 6.14865
"SMAStrip (Nitinol)".10, 6.14344, 6.14344, 6.14344, 6.14344, 6.14344
"SMAStrip (Nitinol)".11, 6.14297, 6.14297, 6.14297, 6.14297, 6.14297
"SMAStrip (Nitinol)".12, 6.14177, 6.14177, 6.14177, 6.14177, 6.14177
"SMAStrip (Nitinol)".13, 6.14051, 6.14051, 6.14051, 6.14051, 6.14051
"SMAStrip (Nitinol)".14, 6.13891, 6.13891, 6.13891, 6.13891, 6.13891
"SMAStrip (Nitinol)".15, 6.13771, 6.13771, 6.13771, 6.13771, 6.13771
"SMAStrip (Nitinol)".16, 6.13615, 6.13615, 6.13615, 6.13615, 6.13615
"SMAStrip (Nitinol)".17, 6.13428, 6.13428, 6.13428, 6.13428, 6.13428
"SMAStrip (Nitinol)".18, 6.13236, 6.13236, 6.13236, 6.13236, 6.13236
"SMAStrip (Nitinol)".19, 6.13009, 6.13009, 6.13009, 6.13009, 6.13009
"SMAStrip (Nitinol)".20, 6.12695, 6.12695, 6.12695, 6.12695, 6.12695
** ... 1185 like lines cut
** ----------------------------------------------------------------
** 
** STEP: Heat_18
** 
*Step, name=Heat_18, nlgeom=YES, inc=200
*Coupled Temperature-displacement, creep=none, deltmx=5.
0.1, 10., 4e-05, 5.
** 
** BOUNDARY CONDITIONS
** 
** Name: FixEdge Type: Symmetry/Antisymmetry/Encastre
*Boundary
Fixed-Set, ENCASTRE
** 
** LOADS
** 
** Name: Load_18   Type: Surface heat flux Using Field: AnalyticalField-1
*Dflux
"SMAStrip (Nitinol)".1, SPOS, 353.838
"SMAStrip (Nitinol)".2, SPOS, 345.645
"SMAStrip (Nitinol)".3, SPOS, 349.51
"SMAStrip (Nitinol)".4, SPOS, 353.814
"SMAStrip (Nitinol)".5, SPOS, 354.195
"SMAStrip (Nitinol)".6, SPOS, 352.461
"SMAStrip (Nitinol)".7, SPOS, 333.225
"SMAStrip (Nitinol)".8, SPOS, 331.739
"SMAStrip (Nitinol)".9, SPOS, 347.605
"SMAStrip (Nitinol)".10, SPOS, 346.458
"SMAStrip (Nitinol)".11, SPOS, 351.939
"SMAStrip (Nitinol)".12, SPOS, 350.313
"SMAStrip (Nitinol)".13, SPOS, 340.148
"SMAStrip (Nitinol)".14, SPOS, 297.439
"SMAStrip (Nitinol)".15, SPOS, 334.445
"SMAStrip (Nitinol)".16, SPOS, 339.396
"SMAStrip (Nitinol)".17, SPOS, 328.948
"SMAStrip (Nitinol)".18, SPOS, 350.306
"SMAStrip (Nitinol)".19, SPOS, 352.758
"SMAStrip (Nitinol)".20, SPOS, 352.882
** ... 1090 like lines cut
** 
** INTERACTIONS
** 
** Interaction: ToVacuum
*Sradiate, amplitude=InstantVacuum
All-Surfaces, R, 4., 1.
** 
** OUTPUT REQUESTS
** 
*Restart, write, frequency=0
** 
** FIELD OUTPUT: F-Output-HFL
** 
*Output, field
*Element Output, directions=YES
HFL, 
** 
** FIELD OUTPUT: F-Output-1
** 
*Output, field, variable=PRESELECT
** 
** HISTORY OUTPUT: H-Output-1
** 
*Output, history, variable=PRESELECT
*End Step
