*Heading
 Iteration 7
** Job name: SMAHeatTransient_07 Model name: Model_07
** Generated by: Abaqus/CAE 2025
*Preprint, echo=NO, model=NO, history=NO, contact=NO
**
** PARTS
**
*Part, name="SMAStrip (Nitinol)"
*Node
      1,   0.82040292,  0.099905245, -0.514634609
      2,  0.813959301,  0.099905014, -0.506909907
      3,  0.808298171, 0.0999075025, -0.498662144
      4,  0.802568913, 0.0999100059, -0.490460247
      5,  0.796771884, 0.0999125242, -0.482304752
      6,  0.790907562,   0.09991505, -0.474196345
      7,  0.784976244, 0.0999175832, -0.466135561
      8,  0.778978407, 0.0999201089, -0.458123058
      9,  0.772914469, 0.0999226347, -0.450159371
     10,  0.766784787, 0.0999251604, -0.442245126
     11,  0.760589898, 0.0999276713, -0.434380919
     12,  0.754330158, 0.0999301672, -0.426567286
     13,  0.748005986, 0.0999326482, -0.418804824
     14,  0.741617918, 0.0999351069, -0.411094099
     15,  0.735166311, 0.0999375433, -0.403435677
     16,  0.728651643, 0.0999399573, -0.395830095
     17,  0.722074389,  0.099942334, -0.388277948
     18,  0.715435028, 0.0999446735, -0.380779743
     19,  0.708733976, 0.0999469757, -0.373336047
     20,   0.70197171, 0.0999492407, -0.365947396
** ... 1091 like lines cut
*Element, type=S4RT
   1,    1,    2,  103,  102
   2,    2,    3,  104,  103
   3,    3,    4,  105,  104
   4,    4,    5,  106,  105
   5,    5,    6,  107,  106
   6,    6,    7,  108,  107
   7,    7,    8,  109,  108
   8,    8,    9,  110,  109
   9,    9,   10,  111,  110
  10,   10,   11,  112,  111
  11,   11,   12,  113,  112
  12,   12,   13,  114,  113
  13,   13,   14,  115,  114
  14,   14,   15,  116,  115
  15,   15,   16,  117,  116
  16,   16,   17,  118,  117
  17,   17,   18,  119,  118
  18,   18,   19,  120,  119
  19,   19,   20,  121,  120
  20,   20,   21,  122,  121
** ... 980 like lines cut
*Nset, nset=Set-1, generate
    1,  1111,     1
*Elset, elset=Set-1, generate
    1,  1000,     1
** Section: CompositeSection-1
*Shell Section, elset=Set-1, composite
0.0025, 3, Aluminum, 0., a
0.0025, 3, FakeSMA, 0., b
*End Part
**  
**
** ASSEMBLY
**
*Assembly, name=Assembly
**  
*Instance, name="SMAStrip (Nitinol)", part="SMAStrip (Nitinol)"
*End Instance
**  
*Nset, nset=Fixed-Set, instance="SMAStrip (Nitinol)"
  100,  101,  202,  303,  404,  505,  606,  707,  808,  909, 1010, 1111
*Elset, elset=Fixed-Set, instance="SMAStrip (Nitinol)", generate
  100,  1000,   100
*Nset, nset=Set-Temp, instance="SMAStrip (Nitinol)", generate
    1,  1111,     1
*Elset, elset=Set-Temp, instance="SMAStrip (Nitinol)", generate
    1,  1000,     1
*Elset, elset=_All-Surfaces_SPOS, internal, instance="SMAStrip (Nitinol)", generate
    1,  1000,     1
*Surface, type=ELEMENT, name=All-Surfaces
_All-Surfaces_SPOS, SPOS
*End Assembly
*Amplitude, name=InstantVacuum
             0.,              1.,              4.,              1.
** 
** MATERIALS
** 
*Material, name=Aluminum
*Conductivity
100.,
*Density
2300.,
*Elastic
 7e+10, 0.3
*Expansion
0.,
*Specific Heat
900.,
*Material, name=FakeSMA
*Conductivity
50.,
*Density
6450.,
*Elastic
 9e+10, 0.3
*Expansion
 0.0025,
*Specific Heat
800.,
** 
** PHYSICAL CONSTANTS
** 
*Physical Constants, absolute zero=0., stefan boltzmann=5.67e-08
** 
** PREDEFINED FIELDS
** 
** Name: Temp0   Type: Temperature Using Field: TempField_Initial
*Initial Conditions, type=TEMPERATURE
"SMAStrip (Nitinol)".1, 4.56398, 4.56398, 4.56398, 4.56398, 4.56398
"SMAStrip (Nitinol)".2, 4.56446, 4.56446, 4.56446, 4.56446, 4.56446
"SMAStrip (Nitinol)".3, 4.566, 4.566, 4.566, 4.566, 4.566
"SMAStrip (Nitinol)".4, 4.56841, 4.56841, 4.56841, 4.56841, 4.56841
"SMAStrip (Nitinol)".5, 4.57159, 4.57159, 4.57159, 4.57159, 4.57159
"SMAStrip (Nitinol)".6, 4.5754, 4.5754, 4.5754, 4.5754, 4.5754
"SMAStrip (Nitinol)".7, 4.57973, 4.57973, 4.57973, 4.57973, 4.57973
"SMAStrip (Nitinol)".8, 4.58444, 4.58444, 4.58444, 4.58444, 4.58444
"SMAStrip (Nitinol)".9, 4.58944, 4.58944, 4.58944, 4.58944, 4.58944
"SMAStrip (Nitinol)".10, 4.59462, 4.59462, 4.59462, 4.59462, 4.59462
"SMAStrip (Nitinol)".11, 4.59993, 4.59993, 4.59993, 4.59993, 4.59993
"SMAStrip (Nitinol)".12, 4.60531, 4.60531, 4.60531, 4.60531, 4.60531
"SMAStrip (Nitinol)".13, 4.61074, 4.61074, 4.61074, 4.61074, 4.61074
"SMAStrip (Nitinol)".14, 4.6162, 4.6162, 4.6162, 4.6162, 4.6162
"SMAStrip (Nitinol)".15, 4.62171, 4.62171, 4.62171, 4.62171, 4.62171
"SMAStrip (Nitinol)".16, 4.62725, 4.62725, 4.62725, 4.62725, 4.62725
"SMAStrip (Nitinol)".17, 4.63283, 4.63283, 4.63283, 4.63283, 4.63283
"SMAStrip (Nitinol)".18, 4.63847, 4.63847, 4.63847, 4.63847, 4.63847
"SMAStrip (Nitinol)".19, 4.64418, 4.64418, 4.64418, 4.64418, 4.64418
"SMAStrip (Nitinol)".20, 4.64998, 4.64998, 4.64998, 4.64998, 4.64998
** ... 1091 like lines cut
** ----------------------------------------------------------------
** 
** STEP: Heat_07
** 
*Step, name=Heat_07, nlgeom=YES, inc=200
*Coupled Temperature-displacement, creep=none, deltmx=5.
0.1, 20., 4e-05, 5.
** 
** BOUNDARY CONDITIONS
** 
** Name: FixEdge Type: Symmetry/Antisymmetry/Encastre
*Boundary
Fixed-Set, ENCASTRE
** 
** LOADS
** 
** Name: Load_07   Type: Surface heat flux Using Field: AnalyticalField-1
*Dflux
"SMAStrip (Nitinol)".1, SPOS, -447.623
"SMAStrip (Nitinol)".2, SPOS, -440.021
"SMAStrip (Nitinol)".3, SPOS, -432.466
"SMAStrip (Nitinol)".4, SPOS, -424.884
"SMAStrip (Nitinol)".5, SPOS, -417.268
"SMAStrip (Nitinol)".6, SPOS, -409.624
"SMAStrip (Nitinol)".7, SPOS, -401.951
"SMAStrip (Nitinol)".8, SPOS, -394.215
"SMAStrip (Nitinol)".9, SPOS, -399.285
"SMAStrip (Nitinol)".10, SPOS, -384.858
"SMAStrip (Nitinol)".11, SPOS, -362.13
"SMAStrip (Nitinol)".12, SPOS, -362.13
"SMAStrip (Nitinol)".13, SPOS, -362.13
"SMAStrip (Nitinol)".14, SPOS, -362.13
"SMAStrip (Nitinol)".15, SPOS, -362.13
"SMAStrip (Nitinol)".55, SPOS, 12.155
"SMAStrip (Nitinol)".56, SPOS, 14.5327
"SMAStrip (Nitinol)".57, SPOS, 14.598
"SMAStrip (Nitinol)".58, SPOS, 17.3531
"SMAStrip (Nitinol)".59, SPOS, 19.8306
** ... 573 like lines cut
** 
** INTERACTIONS
** 
** Interaction: ToVacuum
*Sradiate, amplitude=InstantVacuum
All-Surfaces, R, 4., 1.
** 
** OUTPUT REQUESTS
** 
*Restart, write, frequency=0
** 
** FIELD OUTPUT: F-Output-HFL
** 
*Output, field
*Element Output, directions=YES
HFL, 
** 
** FIELD OUTPUT: F-Output-1
** 
*Output, field, variable=PRESELECT
** 
** HISTORY OUTPUT: H-Output-1
** 
*Output, history, variable=PRESELECT
*End Step
