*Heading
 Iteration 16
** Job name: SMAHeatTransient_16 Model name: Model_16
** Generated by: Abaqus/CAE 2025
*Preprint, echo=NO, model=NO, history=NO, contact=NO
**
** PARTS
**
*Part, name="SMAStrip (Nitinol)"
*Node
      1,  0.010017219, -0.000877441198, -0.000832815538
      2, 0.0300768204, -0.000958917895, -0.00163761491
      3, 0.0401050001, -0.000998563366, -0.00207882794
      4, 0.0601577908, -0.0010756671, -0.00303886645
      5, 0.0701822639, -0.00111312489, -0.00355768506
      6, 0.0902270377, -0.00118585117, -0.00467290496
      7,  0.100247204, -0.00122111908, -0.00526929833
      8,  0.120282762, -0.00128946337, -0.00653963257
      9,  0.130298018, -0.00132253929, -0.00721356506
     10,  0.150323153, -0.00138649752, -0.00863893703
     11,  0.160332903, -0.00141737948, -0.00939036813
     12,  0.180346429, -0.00147694792, -0.010970694
     13,  0.190350056, -0.00150563405, -0.0117995776
     14,  0.210350767, -0.00156080897, -0.013534762
     15,  0.220347688, -0.00158729753, -0.0144410497
     16,  0.240334377, -0.0016380758, -0.0163309872
     17,  0.250324011, -0.00166236528, -0.017314624
     18,  0.270295471, -0.00170874374, -0.0193592031
     19,  0.280277163, -0.0017308325, -0.0204201303
     20,  0.300232232, -0.00177280849, -0.0226192269
** ... 1415 like lines cut
*Element, type=S3T
 1,  384,  210,  209
 2,  777,  601,  778
 3,  182,  291,  181
 4,  643,  738,  644
 5,  481,  572,  482
 6,  389,  482,  390
 7,  842,  841,  934
 8, 1407,  712,  711
 9,  771,  787,  770
10, 1402, 1352, 1374
11, 1411,  802,  803
12,  623,  534,  533
13, 1379,  630,  629
14,  817, 1417,  816
15, 1428, 1414,  551
16,  477,  385,  384
17,  677,  676,  706
18, 1326,  602,  603
19, 1384,  431,  522
20,  498,  587,  588
** ... 17 like lines cut
*Element, type=S4RT
  38,  245,  420,  151,   67
  39,  244,  419,  245, 1227
  40,  244,  243,  418,  419
  41,  242,  417,  418,  243
  42,  417,  242,  241,  416
  43,  240,  415,  416,  241
  44,  415,  240,  239,  414
  45,  414,  239,  238,  413
  46, 1272,  412,  413,  238
  47, 1281,  412, 1272,  237
  48,  410, 1294, 1273,  235
  49,  235,  234,  409,  410
  50,  234,  233,  408,  409
  51,  233,  232,  407,  408
  52,  232,  231,  406,  407
  53,  406,  231,  230,  405
  54,  229,  404,  405,  230
  55,  229,  228,  403,  404
  56,  403,  228, 1285,  402
  57,  227,  226,  401, 1312
** ... 1286 like lines cut
*Nset, nset=Set-1, generate
    1,  1435,     1
*Elset, elset=Set-1, generate
    1,  1343,     1
** Section: CompositeSection-1
*Shell Section, elset=Set-1, composite
0.0025, 3, Aluminum, 0., a
0.0025, 3, FakeSMA, 0., b
*End Part
**  
**
** ASSEMBLY
**
*Assembly, name=Assembly
**  
*Instance, name="SMAStrip (Nitinol)", part="SMAStrip (Nitinol)"
*End Instance
**  
*Nset, nset=Fixed-Set, instance="SMAStrip (Nitinol)"
  67, 143, 144, 145, 146, 147, 148, 149, 150, 151
*Elset, elset=Fixed-Set, instance="SMAStrip (Nitinol)"
   30,   38,  612,  613,  621,  625,  628,  630, 1229
*Nset, nset=Set-Temp, instance="SMAStrip (Nitinol)", generate
    1,  1435,     1
*Elset, elset=Set-Temp, instance="SMAStrip (Nitinol)", generate
    1,  1343,     1
*Elset, elset=_All-Surfaces_SPOS, internal, instance="SMAStrip (Nitinol)", generate
    1,  1343,     1
*Surface, type=ELEMENT, name=All-Surfaces
_All-Surfaces_SPOS, SPOS
*End Assembly
*Amplitude, name=InstantVacuum
             0.,              1.,              4.,              1.
** 
** MATERIALS
** 
*Material, name=Aluminum
*Conductivity
100.,
*Density
2300.,
*Elastic
 7e+10, 0.3
*Expansion
0.,
*Specific Heat
900.,
*Material, name=FakeSMA
*Conductivity
50.,
*Density
6450.,
*Elastic
 9e+10, 0.3
*Expansion
 0.0025,
*Specific Heat
800.,
** 
** PHYSICAL CONSTANTS
** 
*Physical Constants, absolute zero=0., stefan boltzmann=5.67e-08
** 
** PREDEFINED FIELDS
** 
** Name: Temp0   Type: Temperature Using Field: TempField_Initial
*Initial Conditions, type=TEMPERATURE
"SMAStrip (Nitinol)".1, 5.92122, 5.92122, 5.92122, 5.92122, 5.92122
"SMAStrip (Nitinol)".2, 5.91894, 5.91894, 5.91894, 5.91894, 5.91894
"SMAStrip (Nitinol)".3, 5.91738, 5.91738, 5.91738, 5.91738, 5.91738
"SMAStrip (Nitinol)".4, 5.914, 5.914, 5.914, 5.914, 5.914
"SMAStrip (Nitinol)".5, 5.91198, 5.91198, 5.91198, 5.91198, 5.91198
"SMAStrip (Nitinol)".6, 5.90722, 5.90722, 5.90722, 5.90722, 5.90722
"SMAStrip (Nitinol)".7, 5.9045, 5.9045, 5.9045, 5.9045, 5.9045
"SMAStrip (Nitinol)".8, 5.89844, 5.89844, 5.89844, 5.89844, 5.89844
"SMAStrip (Nitinol)".9, 5.89514, 5.89514, 5.89514, 5.89514, 5.89514
"SMAStrip (Nitinol)".10, 5.88784, 5.88784, 5.88784, 5.88784, 5.88784
"SMAStrip (Nitinol)".11, 5.88397, 5.88397, 5.88397, 5.88397, 5.88397
"SMAStrip (Nitinol)".12, 5.87568, 5.87568, 5.87568, 5.87568, 5.87568
"SMAStrip (Nitinol)".13, 5.8712, 5.8712, 5.8712, 5.8712, 5.8712
"SMAStrip (Nitinol)".14, 5.86141, 5.86141, 5.86141, 5.86141, 5.86141
"SMAStrip (Nitinol)".15, 5.85572, 5.85572, 5.85572, 5.85572, 5.85572
"SMAStrip (Nitinol)".16, 5.84139, 5.84139, 5.84139, 5.84139, 5.84139
"SMAStrip (Nitinol)".17, 5.83197, 5.83197, 5.83197, 5.83197, 5.83197
"SMAStrip (Nitinol)".18, 5.80657, 5.80657, 5.80657, 5.80657, 5.80657
"SMAStrip (Nitinol)".19, 5.78988, 5.78988, 5.78988, 5.78988, 5.78988
"SMAStrip (Nitinol)".20, 5.7447, 5.7447, 5.7447, 5.7447, 5.7447
** ... 1415 like lines cut
** ----------------------------------------------------------------
** 
** STEP: Heat_16
** 
*Step, name=Heat_16, nlgeom=YES, inc=200
*Coupled Temperature-displacement, creep=none, deltmx=5.
0.1, 10., 4e-05, 5.
** 
** BOUNDARY CONDITIONS
** 
** Name: FixEdge Type: Symmetry/Antisymmetry/Encastre
*Boundary
Fixed-Set, ENCASTRE
** 
** LOADS
** 
** Name: Load_16   Type: Surface heat flux Using Field: AnalyticalField-1
*Dflux
"SMAStrip (Nitinol)".1, SPOS, 311.218
"SMAStrip (Nitinol)".2, SPOS, 349.921
"SMAStrip (Nitinol)".3, SPOS, 293.764
"SMAStrip (Nitinol)".4, SPOS, 357.355
"SMAStrip (Nitinol)".5, SPOS, 347.22
"SMAStrip (Nitinol)".6, SPOS, 329.268
"SMAStrip (Nitinol)".7, SPOS, 338.544
"SMAStrip (Nitinol)".8, SPOS, 355.398
"SMAStrip (Nitinol)".9, SPOS, 344.983
"SMAStrip (Nitinol)".10, SPOS, 345.447
"SMAStrip (Nitinol)".11, SPOS, 343.749
"SMAStrip (Nitinol)".12, SPOS, 353.355
"SMAStrip (Nitinol)".13, SPOS, 356.619
"SMAStrip (Nitinol)".14, SPOS, 334.833
"SMAStrip (Nitinol)".15, SPOS, 351.447
"SMAStrip (Nitinol)".16, SPOS, 334.018
"SMAStrip (Nitinol)".17, SPOS, 355.482
"SMAStrip (Nitinol)".18, SPOS, 355.519
"SMAStrip (Nitinol)".19, SPOS, 343.038
"SMAStrip (Nitinol)".20, SPOS, 352.201
** ... 1323 like lines cut
** 
** INTERACTIONS
** 
** Interaction: ToVacuum
*Sradiate, amplitude=InstantVacuum
All-Surfaces, R, 4., 1.
** 
** OUTPUT REQUESTS
** 
*Restart, write, frequency=0
** 
** FIELD OUTPUT: F-Output-HFL
** 
*Output, field
*Element Output, directions=YES
HFL, 
** 
** FIELD OUTPUT: F-Output-1
** 
*Output, field, variable=PRESELECT
** 
** HISTORY OUTPUT: H-Output-1
** 
*Output, history, variable=PRESELECT
*End Step
