*Heading
 Iteration 17
** Job name: SMAHeatTransient_17 Model name: Model_17
** Generated by: Abaqus/CAE 2025
*Preprint, echo=NO, model=NO, history=NO, contact=NO
**
** PARTS
**
*Part, name="SMAStrip (Nitinol)"
*Node
      1, 2.47124044e-05, 0.0605438016, 0.00173974258
      2, 2.0336076e-05, 0.0504264683, 0.00148645544
      3, 1.59597475e-05, 0.0403091349, 0.00123316841
      4, 7.20709113e-06,   0.02007447, 0.000726594182
      5, 2.83076315e-06, 0.00995713565, 0.000473307096
      6, 2.17008237e-05, 0.0706800669, 0.00123701408
      7, -1.54556494e-06, -0.000160197378, 0.000220019981
      8, 0.0100013791, -0.000933067931, -0.000865354377
      9, 0.0300627481, -0.00102254539, -0.00171380374
     10, 0.0400917232, -0.00106608937, -0.00217698002
     11, 0.0601459183, -0.00115078629, -0.0031812198
     12,  0.070171006, -0.00119193865, -0.00372227677
     13, 0.0902168155, -0.00127184985, -0.00488224672
     14,  0.100237407, -0.00131060812, -0.00550115202
     15,   0.12027362, -0.00138572871, -0.00681678159
     16,  0.130289108, -0.00142209057, -0.00751349749
     17,  0.150314525, -0.00149241614, -0.0089847073
     18,  0.160324305, -0.00152637926, -0.00975919235
     19,  0.180337697, -0.00159190549, -0.0113858944
     20,  0.190341175, -0.00162346801, -0.0122381002
** ... 1418 like lines cut
*Element, type=S3T
 1, 1287, 1233,  947
 2, 1408, 1435,  165
 3,  217,  402,  403
 4,  239,  423,  424
 5,  292,  992,  993
 6,  228,  227,  412
 7,  241,  249,  250
 8,  300,  301,  191
 9,  468,  391, 1404
10,  396,  463,  462
11,  349,  348,  509
12,  360,  359,  498
13, 1436, 1418,  408
14,  790,  698,  697
15, 1368,  433,  605
16,  425,  604,  433
17,  434,  603,  604
18,  469,  569,  570
19,  555,  642,  643
20,  491,  492,  547
** ... 18 like lines cut
*Element, type=S4RT
  39,   10,  797,  796,    9
  40,    9,  796,  795, 1142
  41, 1274,  700, 1228,  793
  42,  793, 1228,    4,    5
  43,  793,    5,    7, 1274
  44,  701,  795,  796,  702
  45, 1309,  701,  609,  700
  46, 1309,  794,  795,  701
  47, 1257, 1141,    4, 1228
  48,  701,  702,  610,  609
  49,  703,  611,  610,  702
  50,  703,  704,  612,  611
  51,  704,  705,  613,  612
  52,  706,  707,  615,  614
  53, 1312,  616,  615,  707
  54,  617,  708,  709, 1374
  55,  710,  618, 1374,  709
  56,  618,  710,  711,  619
  57,  619,  711,  712,  620
  58,  620,  712,  713,  621
** ... 1288 like lines cut
*Nset, nset=Set-1, generate
    1,  1438,     1
*Elset, elset=Set-1, generate
    1,  1346,     1
** Section: CompositeSection-1
*Shell Section, elset=Set-1, composite
0.0025, 3, Aluminum, 0., a
0.0025, 3, FakeSMA, 0., b
*End Part
**  
**
** ASSEMBLY
**
*Assembly, name=Assembly
**  
*Instance, name="SMAStrip (Nitinol)", part="SMAStrip (Nitinol)"
*End Instance
**  
*Nset, nset=Fixed-Set, instance="SMAStrip (Nitinol)"
    1,    2,    3,    4,    5,    6,    7,  149,  150,  151, 1141
*Elset, elset=Fixed-Set, instance="SMAStrip (Nitinol)"
   42,   43,   47,  553,  554,  555,  556, 1288, 1293, 1296
*Nset, nset=Set-Temp, instance="SMAStrip (Nitinol)", generate
    1,  1438,     1
*Elset, elset=Set-Temp, instance="SMAStrip (Nitinol)", generate
    1,  1346,     1
*Elset, elset=_All-Surfaces_SPOS, internal, instance="SMAStrip (Nitinol)", generate
    1,  1346,     1
*Surface, type=ELEMENT, name=All-Surfaces
_All-Surfaces_SPOS, SPOS
*End Assembly
*Amplitude, name=InstantVacuum
             0.,              1.,              4.,              1.
** 
** MATERIALS
** 
*Material, name=Aluminum
*Conductivity
100.,
*Density
2300.,
*Elastic
 7e+10, 0.3
*Expansion
0.,
*Specific Heat
900.,
*Material, name=FakeSMA
*Conductivity
50.,
*Density
6450.,
*Elastic
 9e+10, 0.3
*Expansion
 0.0025,
*Specific Heat
800.,
** 
** PHYSICAL CONSTANTS
** 
*Physical Constants, absolute zero=0., stefan boltzmann=5.67e-08
** 
** PREDEFINED FIELDS
** 
** Name: Temp0   Type: Temperature Using Field: TempField_Initial
*Initial Conditions, type=TEMPERATURE
"SMAStrip (Nitinol)".1, 6.08165, 6.08165, 6.08165, 6.08165, 6.08165
"SMAStrip (Nitinol)".2, 6.0844, 6.0844, 6.0844, 6.0844, 6.0844
"SMAStrip (Nitinol)".3, 6.07866, 6.07866, 6.07866, 6.07866, 6.07866
"SMAStrip (Nitinol)".4, 6.05204, 6.05204, 6.05204, 6.05204, 6.05204
"SMAStrip (Nitinol)".5, 6.0437, 6.0437, 6.0437, 6.0437, 6.0437
"SMAStrip (Nitinol)".6, 6.07085, 6.07085, 6.07085, 6.07085, 6.07085
"SMAStrip (Nitinol)".7, 6.03557, 6.03557, 6.03557, 6.03557, 6.03557
"SMAStrip (Nitinol)".8, 6.03577, 6.03577, 6.03577, 6.03577, 6.03577
"SMAStrip (Nitinol)".9, 6.03083, 6.03083, 6.03083, 6.03083, 6.03083
"SMAStrip (Nitinol)".10, 6.02897, 6.02897, 6.02897, 6.02897, 6.02897
"SMAStrip (Nitinol)".11, 6.025, 6.025, 6.025, 6.025, 6.025
"SMAStrip (Nitinol)".12, 6.0228, 6.0228, 6.0228, 6.0228, 6.0228
"SMAStrip (Nitinol)".13, 6.01816, 6.01816, 6.01816, 6.01816, 6.01816
"SMAStrip (Nitinol)".14, 6.0159, 6.0159, 6.0159, 6.0159, 6.0159
"SMAStrip (Nitinol)".15, 6.00853, 6.00853, 6.00853, 6.00853, 6.00853
"SMAStrip (Nitinol)".16, 6.00466, 6.00466, 6.00466, 6.00466, 6.00466
"SMAStrip (Nitinol)".17, 5.99674, 5.99674, 5.99674, 5.99674, 5.99674
"SMAStrip (Nitinol)".18, 5.9924, 5.9924, 5.9924, 5.9924, 5.9924
"SMAStrip (Nitinol)".19, 5.98339, 5.98339, 5.98339, 5.98339, 5.98339
"SMAStrip (Nitinol)".20, 5.97857, 5.97857, 5.97857, 5.97857, 5.97857
** ... 1418 like lines cut
** ----------------------------------------------------------------
** 
** STEP: Heat_17
** 
*Step, name=Heat_17, nlgeom=YES, inc=200
*Coupled Temperature-displacement, creep=none, deltmx=5.
0.1, 10., 4e-05, 5.
** 
** BOUNDARY CONDITIONS
** 
** Name: FixEdge Type: Symmetry/Antisymmetry/Encastre
*Boundary
Fixed-Set, ENCASTRE
** 
** LOADS
** 
** Name: Load_17   Type: Surface heat flux Using Field: AnalyticalField-1
*Dflux
"SMAStrip (Nitinol)".1, SPOS, 286.741
"SMAStrip (Nitinol)".2, SPOS, 345.27
"SMAStrip (Nitinol)".3, SPOS, 350.394
"SMAStrip (Nitinol)".4, SPOS, 350.268
"SMAStrip (Nitinol)".5, SPOS, 307.008
"SMAStrip (Nitinol)".6, SPOS, 346.696
"SMAStrip (Nitinol)".7, SPOS, 323.002
"SMAStrip (Nitinol)".8, SPOS, 326.575
"SMAStrip (Nitinol)".9, SPOS, 351.695
"SMAStrip (Nitinol)".10, SPOS, 355.022
"SMAStrip (Nitinol)".11, SPOS, 353.864
"SMAStrip (Nitinol)".12, SPOS, 354.734
"SMAStrip (Nitinol)".13, SPOS, 353.856
"SMAStrip (Nitinol)".14, SPOS, 329.797
"SMAStrip (Nitinol)".15, SPOS, 355.371
"SMAStrip (Nitinol)".16, SPOS, 355.069
"SMAStrip (Nitinol)".17, SPOS, 350.874
"SMAStrip (Nitinol)".18, SPOS, 352.882
"SMAStrip (Nitinol)".19, SPOS, 339.941
"SMAStrip (Nitinol)".20, SPOS, 354.968
** ... 1326 like lines cut
** 
** INTERACTIONS
** 
** Interaction: ToVacuum
*Sradiate, amplitude=InstantVacuum
All-Surfaces, R, 4., 1.
** 
** OUTPUT REQUESTS
** 
*Restart, write, frequency=0
** 
** FIELD OUTPUT: F-Output-HFL
** 
*Output, field
*Element Output, directions=YES
HFL, 
** 
** FIELD OUTPUT: F-Output-1
** 
*Output, field, variable=PRESELECT
** 
** HISTORY OUTPUT: H-Output-1
** 
*Output, history, variable=PRESELECT
*End Step
