*Heading
 Iteration 6
** Job name: SMAHeatTransient_06 Model name: Model_06
** Generated by: Abaqus/CAE 2025
*Preprint, echo=NO, model=NO, history=NO, contact=NO
**
** PARTS
**
*Part, name="SMAStrip (Nitinol)"
*Node
      1,   0.91631037, 0.00040632562, -0.409033179
      2,  0.912158072, 0.0104870526,  -0.41326794
      3,  0.912185192,  0.020547118, -0.413243324
      4,  0.912213087, 0.0306067225, -0.413219512
      5,  0.912241817, 0.0406670384, -0.413196474
      6,  0.912271142, 0.0507268943, -0.413174033
      7,  0.912301123, 0.0607857332, -0.413152277
      8,  0.912332773, 0.0708407983, -0.413132131
      9,  0.912363648, 0.0808969513,  -0.41311124
     10,  0.912397444, 0.0909230113, -0.413093358
     11,  0.912462354,  0.100472331, -0.413108408
     12,  0.905362427, 0.000413405476, -0.406695276
     13,  0.905335724, 0.0104721198, -0.406618625
     14,  0.905323386, 0.0205313843, -0.406555861
     15,  0.905311882, 0.0305901933, -0.406493962
     16,  0.905301213, 0.0406497009, -0.406432807
     17,    0.9052912, 0.0507087633, -0.406372279
     18,  0.905281782, 0.0607668124, -0.406312406
     19,  0.905274093, 0.0708211362, -0.406254172
     20,   0.90526557, 0.0808765143, -0.406195194
** ... 1113 like lines cut
*Element, type=S4RT
   1,    1,    2,   13,   12
   2,    2,    3,   14,   13
   3,    3,    4,   15,   14
   4,    4,    5,   16,   15
   5,    5,    6,   17,   16
   6,    6,    7,   18,   17
   7,    7,    8,   19,   18
   8,    8,    9,   20,   19
   9,    9,   10,   21,   20
  10,   10,   11,   22,   21
  11,   12,   13,   24,   23
  12,   13,   14,   25,   24
  13,   14,   15,   26,   25
  14,   15,   16,   27,   26
  15,   16,   17,   28,   27
  16,   17,   18,   29,   28
  17,   18,   19,   30,   29
  18,   19,   20,   31,   30
  19,   20,   21,   32,   31
  20,   21,   22,   33,   32
** ... 1000 like lines cut
*Nset, nset=Set-1, generate
    1,  1133,     1
*Elset, elset=Set-1, generate
    1,  1020,     1
** Section: CompositeSection-1
*Shell Section, elset=Set-1, composite
0.0025, 3, Aluminum, 0., a
0.0025, 3, FakeSMA, 0., b
*End Part
**  
**
** ASSEMBLY
**
*Assembly, name=Assembly
**  
*Instance, name="SMAStrip (Nitinol)", part="SMAStrip (Nitinol)"
*End Instance
**  
*Nset, nset=Fixed-Set, instance="SMAStrip (Nitinol)", generate
 1124,  1132,     1
*Elset, elset=Fixed-Set, instance="SMAStrip (Nitinol)", generate
 1012,  1019,     1
*Nset, nset=Set-Temp, instance="SMAStrip (Nitinol)", generate
    1,  1133,     1
*Elset, elset=Set-Temp, instance="SMAStrip (Nitinol)", generate
    1,  1020,     1
*Elset, elset=_All-Surfaces_SPOS, internal, instance="SMAStrip (Nitinol)", generate
    1,  1020,     1
*Surface, type=ELEMENT, name=All-Surfaces
_All-Surfaces_SPOS, SPOS
*End Assembly
*Amplitude, name=InstantVacuum
             0.,              1.,              4.,              1.
** 
** MATERIALS
** 
*Material, name=Aluminum
*Conductivity
100.,
*Density
2300.,
*Elastic
 7e+10, 0.3
*Expansion
0.,
*Specific Heat
900.,
*Material, name=FakeSMA
*Conductivity
50.,
*Density
6450.,
*Elastic
 9e+10, 0.3
*Expansion
 0.0025,
*Specific Heat
800.,
** 
** PHYSICAL CONSTANTS
** 
*Physical Constants, absolute zero=0., stefan boltzmann=5.67e-08
** 
** PREDEFINED FIELDS
** 
** Name: Temp0   Type: Temperature Using Field: TempField_Initial
*Initial Conditions, type=TEMPERATURE
"SMAStrip (Nitinol)".1, 4.49884, 4.49884, 4.49884, 4.49884, 4.49884
"SMAStrip (Nitinol)".2, 4.49899, 4.49899, 4.49899, 4.49899, 4.49899
"SMAStrip (Nitinol)".3, 4.49904, 4.49904, 4.49904, 4.49904, 4.49904
"SMAStrip (Nitinol)".4, 4.49928, 4.49928, 4.49928, 4.49928, 4.49928
"SMAStrip (Nitinol)".5, 4.49956, 4.49956, 4.49956, 4.49956, 4.49956
"SMAStrip (Nitinol)".6, 4.49982, 4.49982, 4.49982, 4.49982, 4.49982
"SMAStrip (Nitinol)".7, 4.49999, 4.49999, 4.49999, 4.49999, 4.49999
"SMAStrip (Nitinol)".8, 4.50007, 4.50007, 4.50007, 4.50007, 4.50007
"SMAStrip (Nitinol)".9, 4.50007, 4.50007, 4.50007, 4.50007, 4.50007
"SMAStrip (Nitinol)".10, 4.50007, 4.50007, 4.50007, 4.50007, 4.50007
"SMAStrip (Nitinol)".11, 4.5001, 4.5001, 4.5001, 4.5001, 4.5001
"SMAStrip (Nitinol)".12, 4.50016, 4.50016, 4.50016, 4.50016, 4.50016
"SMAStrip (Nitinol)".13, 4.50015, 4.50015, 4.50015, 4.50015, 4.50015
"SMAStrip (Nitinol)".14, 4.5001, 4.5001, 4.5001, 4.5001, 4.5001
"SMAStrip (Nitinol)".15, 4.50033, 4.50033, 4.50033, 4.50033, 4.50033
"SMAStrip (Nitinol)".16, 4.50059, 4.50059, 4.50059, 4.50059, 4.50059
"SMAStrip (Nitinol)".17, 4.50082, 4.50082, 4.50082, 4.50082, 4.50082
"SMAStrip (Nitinol)".18, 4.50097, 4.50097, 4.50097, 4.50097, 4.50097
"SMAStrip (Nitinol)".19, 4.50103, 4.50103, 4.50103, 4.50103, 4.50103
"SMAStrip (Nitinol)".20, 4.50102, 4.50102, 4.50102, 4.50102, 4.50102
** ... 1113 like lines cut
** ----------------------------------------------------------------
** 
** STEP: Heat_06
** 
*Step, name=Heat_06, nlgeom=NO, inc=200
*Coupled Temperature-displacement, creep=none, deltmx=5.
0.1, 15., 4e-05, 5.
** 
** BOUNDARY CONDITIONS
** 
** Name: FixEdge Type: Symmetry/Antisymmetry/Encastre
*Boundary
Fixed-Set, ENCASTRE
** 
** LOADS
** 
** Name: Load_06   Type: Surface heat flux Using Field: AnalyticalField-1
*Dflux
"SMAStrip (Nitinol)".311, SPOS, -26.9759
"SMAStrip (Nitinol)".321, SPOS, -25.5484
"SMAStrip (Nitinol)".322, SPOS, -26.9759
"SMAStrip (Nitinol)".331, SPOS, -25.7379
"SMAStrip (Nitinol)".332, SPOS, -24.4079
"SMAStrip (Nitinol)".341, SPOS, -22.1655
"SMAStrip (Nitinol)".342, SPOS, -23.513
"SMAStrip (Nitinol)".351, SPOS, -21.4064
"SMAStrip (Nitinol)".352, SPOS, -21.4064
"SMAStrip (Nitinol)".370, SPOS, 4.74084
"SMAStrip (Nitinol)".374, SPOS, 1.01738
"SMAStrip (Nitinol)".377, SPOS, 10.3521
"SMAStrip (Nitinol)".378, SPOS, 10.3521
"SMAStrip (Nitinol)".379, SPOS, 8.18527
"SMAStrip (Nitinol)".380, SPOS, 5.92758
"SMAStrip (Nitinol)".382, SPOS, 15.8258
"SMAStrip (Nitinol)".383, SPOS, 15.8258
"SMAStrip (Nitinol)".384, SPOS, 7.9132
"SMAStrip (Nitinol)".385, SPOS, 18.4678
"SMAStrip (Nitinol)".386, SPOS, 17.2212
** ... 633 like lines cut
** 
** INTERACTIONS
** 
** Interaction: ToVacuum
*Sradiate, amplitude=InstantVacuum
All-Surfaces, R, 4., 1.
** 
** OUTPUT REQUESTS
** 
*Restart, write, frequency=0
** 
** FIELD OUTPUT: F-Output-HFL
** 
*Output, field
*Element Output, directions=YES
HFL, 
** 
** FIELD OUTPUT: F-Output-1
** 
*Output, field, variable=PRESELECT
** 
** HISTORY OUTPUT: H-Output-1
** 
*Output, history, variable=PRESELECT
*End Step
