*Heading
 Iteration 12
** Job name: SMAHeatTransient_12 Model name: Model_12
** Generated by: Abaqus/CAE 2025
*Preprint, echo=NO, model=NO, history=NO, contact=NO
**
** PARTS
**
*Part, name="SMAStrip (Nitinol)"
*Node
      1, 0.000960610865,  0.100045159, 0.00865383539
      2,           0., 0.0900193304,           0.
      3,           0., 0.0800162405,           0.
      4,           0., 0.0700131506,           0.
      5,           0., 0.0600100644,           0.
      6,           0., 0.0500069745,           0.
      7,           0., 0.0400038846,           0.
      8,           0., 0.0300007947,           0.
      9,           0., 0.0199977066,           0.
     10,           0., 0.00999461673,           0.
     11, 0.000693106966, 0.0049950527, 0.00614365796
     12, 0.00138806168, 1.53203637e-05, 0.0123031409
     13, 0.0114277694, -0.000109382359, 0.0112337796
     14, 0.0211563352, -0.000194668857, 0.00884253159
     15, 0.0308630709, -0.000256198808, 0.00636948459
     16, 0.0405473039, -0.000296862301, 0.00381486141
     17, 0.0502084158, -0.00031954961, 0.00117887941
     18, 0.0598458052, -0.000327150832, -0.00153824931
     19, 0.0694588944, -0.000322555745, -0.00433631381
     20, 0.0790471062, -0.000308653893, -0.00721510174
** ... 1223 like lines cut
*Element, type=S3T
 1,  355,  347,  346
 2,  345,  335,  344
 3,  425, 1236,  433
 4,  552,  551,  560
 5,  530,  529,  539
 6, 1185,  549,  548
 7, 1184,  567,  566
 8,  698,  697,  707
 9,  686,  687, 1165
10,  223,  208,  215
11, 1182, 1230, 1181
12,  498,  499,  491
13,  540,  541,  532
14,  544,  552,  553
15,  780,  787,  788
16, 1192,  897,  896
17,  941, 1238,  949
18, 1219,  956,  957
19, 1192,  905, 1186
20, 1164,  623,  622
** ... 5 like lines cut
*Element, type=S4RT
  26,  201,  210,  218, 1024
  27, 1143,  217,  210, 1142
  28, 1031,  216,  217, 1143
  29,  207,  212,  213,  214
  30,  211,  206,   13,   14
  31,  219,  211,   14,   15
  32,  227,  219,   15,   16
  33,  227,  237,  228,  219
  34,  238,  229, 1159,  239
  35,  246,  255,  247,  239
  36,  265,  256,  255,  264
  37,  265,  275,  266,  257
  38, 1212,  276, 1189,  275
  39,  295,  286,  285,  294
  40,  295,  304,  305,  296
  41, 1116, 1122,  323,  332
  42,  332,  341, 1106, 1116
  43,  350, 1097, 1106,  341
  44,  359, 1087, 1097,  350
  45,  359,  358,  367,  368
** ... 1099 like lines cut
*Nset, nset=Set-1, generate
    1,  1243,     1
*Elset, elset=Set-1, generate
    1,  1144,     1
** Section: CompositeSection-1
*Shell Section, elset=Set-1, composite
0.0025, 3, Aluminum, 0., a
0.0025, 3, FakeSMA, 0., b
*End Part
**  
**
** ASSEMBLY
**
*Assembly, name=Assembly
**  
*Instance, name="SMAStrip (Nitinol)", part="SMAStrip (Nitinol)"
*End Instance
**  
*Nset, nset=Fixed-Set, instance="SMAStrip (Nitinol)", generate
  1,  12,   1
*Elset, elset=Fixed-Set, instance="SMAStrip (Nitinol)"
   77,  819, 1109, 1110, 1111, 1112, 1113, 1114, 1115, 1116
*Nset, nset=Set-Temp, instance="SMAStrip (Nitinol)", generate
    1,  1243,     1
*Elset, elset=Set-Temp, instance="SMAStrip (Nitinol)", generate
    1,  1144,     1
*Elset, elset=_All-Surfaces_SPOS, internal, instance="SMAStrip (Nitinol)", generate
    1,  1144,     1
*Surface, type=ELEMENT, name=All-Surfaces
_All-Surfaces_SPOS, SPOS
*End Assembly
*Amplitude, name=InstantVacuum
             0.,              1.,              4.,              1.
** 
** MATERIALS
** 
*Material, name=Aluminum
*Conductivity
100.,
*Density
2300.,
*Elastic
 7e+10, 0.3
*Expansion
0.,
*Specific Heat
900.,
*Material, name=FakeSMA
*Conductivity
50.,
*Density
6450.,
*Elastic
 9e+10, 0.3
*Expansion
 0.0025,
*Specific Heat
800.,
** 
** PHYSICAL CONSTANTS
** 
*Physical Constants, absolute zero=0., stefan boltzmann=5.67e-08
** 
** PREDEFINED FIELDS
** 
** Name: Temp0   Type: Temperature Using Field: TempField_Initial
*Initial Conditions, type=TEMPERATURE
"SMAStrip (Nitinol)".1, 6.37142, 6.37142, 6.37142, 6.37142, 6.37142
"SMAStrip (Nitinol)".2, 6.37573, 6.37573, 6.37573, 6.37573, 6.37573
"SMAStrip (Nitinol)".3, 6.38084, 6.38084, 6.38084, 6.38084, 6.38084
"SMAStrip (Nitinol)".4, 6.3887, 6.3887, 6.3887, 6.3887, 6.3887
"SMAStrip (Nitinol)".5, 6.39796, 6.39796, 6.39796, 6.39796, 6.39796
"SMAStrip (Nitinol)".6, 6.40719, 6.40719, 6.40719, 6.40719, 6.40719
"SMAStrip (Nitinol)".7, 6.41527, 6.41527, 6.41527, 6.41527, 6.41527
"SMAStrip (Nitinol)".8, 6.42161, 6.42161, 6.42161, 6.42161, 6.42161
"SMAStrip (Nitinol)".9, 6.42598, 6.42598, 6.42598, 6.42598, 6.42598
"SMAStrip (Nitinol)".10, 6.42804, 6.42804, 6.42804, 6.42804, 6.42804
"SMAStrip (Nitinol)".11, 6.42622, 6.42622, 6.42622, 6.42622, 6.42622
"SMAStrip (Nitinol)".12, 6.42558, 6.42558, 6.42558, 6.42558, 6.42558
"SMAStrip (Nitinol)".13, 6.42143, 6.42143, 6.42143, 6.42143, 6.42143
"SMAStrip (Nitinol)".14, 6.40822, 6.40822, 6.40822, 6.40822, 6.40822
"SMAStrip (Nitinol)".15, 6.38998, 6.38998, 6.38998, 6.38998, 6.38998
"SMAStrip (Nitinol)".16, 6.36814, 6.36814, 6.36814, 6.36814, 6.36814
"SMAStrip (Nitinol)".17, 6.3435, 6.3435, 6.3435, 6.3435, 6.3435
"SMAStrip (Nitinol)".18, 6.31664, 6.31664, 6.31664, 6.31664, 6.31664
"SMAStrip (Nitinol)".19, 6.28799, 6.28799, 6.28799, 6.28799, 6.28799
"SMAStrip (Nitinol)".20, 6.25801, 6.25801, 6.25801, 6.25801, 6.25801
** ... 1223 like lines cut
** ----------------------------------------------------------------
** 
** STEP: Heat_12
** 
*Step, name=Heat_12, nlgeom=YES, inc=200
*Coupled Temperature-displacement, creep=none, deltmx=5.
0.1, 15., 4e-05, 5.
** 
** BOUNDARY CONDITIONS
** 
** Name: FixEdge Type: Symmetry/Antisymmetry/Encastre
*Boundary
Fixed-Set, ENCASTRE
** 
** LOADS
** 
** Name: Load_12   Type: Surface heat flux Using Field: AnalyticalField-1
*Dflux
"SMAStrip (Nitinol)".1, SPOS, 151.296
"SMAStrip (Nitinol)".2, SPOS, 150.984
"SMAStrip (Nitinol)".3, SPOS, 67.5361
"SMAStrip (Nitinol)".10, SPOS, 280.863
"SMAStrip (Nitinol)".11, SPOS, 46.7957
"SMAStrip (Nitinol)".12, SPOS, 5.51025
"SMAStrip (Nitinol)".15, SPOS, -299.393
"SMAStrip (Nitinol)".16, SPOS, -434.284
"SMAStrip (Nitinol)".17, SPOS, -476.342
"SMAStrip (Nitinol)".18, SPOS, -488.055
"SMAStrip (Nitinol)".19, SPOS, -440.087
"SMAStrip (Nitinol)".21, SPOS, -19.7435
"SMAStrip (Nitinol)".22, SPOS, 69.1445
"SMAStrip (Nitinol)".24, SPOS, 145.253
"SMAStrip (Nitinol)".26, SPOS, 285.519
"SMAStrip (Nitinol)".27, SPOS, 290.948
"SMAStrip (Nitinol)".28, SPOS, 290.579
"SMAStrip (Nitinol)".29, SPOS, 284.601
"SMAStrip (Nitinol)".30, SPOS, 284.571
"SMAStrip (Nitinol)".31, SPOS, 275.931
** ... 752 like lines cut
** 
** INTERACTIONS
** 
** Interaction: ToVacuum
*Sradiate, amplitude=InstantVacuum
All-Surfaces, R, 4., 1.
** 
** OUTPUT REQUESTS
** 
*Restart, write, frequency=0
** 
** FIELD OUTPUT: F-Output-HFL
** 
*Output, field
*Element Output, directions=YES
HFL, 
** 
** FIELD OUTPUT: F-Output-1
** 
*Output, field, variable=PRESELECT
** 
** HISTORY OUTPUT: H-Output-1
** 
*Output, history, variable=PRESELECT
*End Step
