*Heading
 Iteration 3
** Job name: SMAHeatTransient_03 Model name: Model_03
** Generated by: Abaqus/CAE 2025
*Preprint, echo=NO, model=NO, history=NO, contact=NO
**
** PARTS
**
*Part, name="SMAStrip (Nitinol)"
*Node
      1,  0.955864608,  0.100021861, -0.260122806
      2,  0.946587026,  0.100023232, -0.256210744
      3,  0.937846065,   0.10002441, -0.251349002
      4,  0.929080427,  0.100025408, -0.246530041
      5,   0.92029053,   0.10002625,  -0.24175404
      6,  0.911476493,  0.100026965, -0.237021133
      7,  0.902638614,  0.100027554, -0.232331499
      8,  0.893777192,  0.100028053, -0.227685288
      9,  0.884892523,  0.100028478, -0.223082632
     10,  0.875984788,  0.100028835, -0.218523666
     11,  0.867054284,  0.100029163,  -0.21400854
     12,   0.85810113,  0.100029476, -0.209537372
     13,  0.849125683,  0.100029789, -0.205110267
     14,  0.840128183,  0.100030124, -0.200727373
     15,  0.831108749,  0.100030489, -0.196388796
     16,  0.822067738,  0.100030877, -0.192094654
     17,  0.813005269,  0.100031294, -0.187845081
     18,    0.8039217,  0.100031719, -0.183640182
     19,  0.794817209,  0.100032158, -0.179480076
     20,  0.785692036,  0.100032613, -0.175364882
** ... 1091 like lines cut
*Element, type=S4RT
   1,    1,    2,  103,  102
   2,    2,    3,  104,  103
   3,    3,    4,  105,  104
   4,    4,    5,  106,  105
   5,    5,    6,  107,  106
   6,    6,    7,  108,  107
   7,    7,    8,  109,  108
   8,    8,    9,  110,  109
   9,    9,   10,  111,  110
  10,   10,   11,  112,  111
  11,   11,   12,  113,  112
  12,   12,   13,  114,  113
  13,   13,   14,  115,  114
  14,   14,   15,  116,  115
  15,   15,   16,  117,  116
  16,   16,   17,  118,  117
  17,   17,   18,  119,  118
  18,   18,   19,  120,  119
  19,   19,   20,  121,  120
  20,   20,   21,  122,  121
** ... 980 like lines cut
*Nset, nset=Set-1, generate
    1,  1111,     1
*Elset, elset=Set-1, generate
    1,  1000,     1
** Section: CompositeSection-1
*Shell Section, elset=Set-1, composite
0.0025, 3, Aluminum, 0., a
0.0025, 3, FakeSMA, 0., b
*End Part
**  
**
** ASSEMBLY
**
*Assembly, name=Assembly
**  
*Instance, name="SMAStrip (Nitinol)", part="SMAStrip (Nitinol)"
*End Instance
**  
*Nset, nset=Fixed-Set, instance="SMAStrip (Nitinol)", generate
  101,  1111,   101
*Elset, elset=Fixed-Set, instance="SMAStrip (Nitinol)", generate
  100,  1000,   100
*Nset, nset=Set-Temp, instance="SMAStrip (Nitinol)", generate
    1,  1111,     1
*Elset, elset=Set-Temp, instance="SMAStrip (Nitinol)", generate
    1,  1000,     1
*Elset, elset=_All-Surfaces_SPOS, internal, instance="SMAStrip (Nitinol)", generate
    1,  1000,     1
*Surface, type=ELEMENT, name=All-Surfaces
_All-Surfaces_SPOS, SPOS
*End Assembly
*Amplitude, name=InstantVacuum
             0.,              1.,              4.,              1.
** 
** MATERIALS
** 
*Material, name=Aluminum
*Conductivity
100.,
*Density
2300.,
*Elastic
 7e+10, 0.3
*Expansion
0.,
*Specific Heat
900.,
*Material, name=FakeSMA
*Conductivity
50.,
*Density
6450.,
*Elastic
 9e+10, 0.3
*Expansion
 0.0025,
*Specific Heat
800.,
** 
** PHYSICAL CONSTANTS
** 
*Physical Constants, absolute zero=0., stefan boltzmann=5.67e-08
** 
** PREDEFINED FIELDS
** 
** Name: Temp0   Type: Temperature Using Field: TempField_Initial
*Initial Conditions, type=TEMPERATURE
"SMAStrip (Nitinol)".1, 4.54021, 4.54021, 4.54021, 4.54021, 4.54021
"SMAStrip (Nitinol)".2, 4.5406, 4.5406, 4.5406, 4.5406, 4.5406
"SMAStrip (Nitinol)".3, 4.54171, 4.54171, 4.54171, 4.54171, 4.54171
"SMAStrip (Nitinol)".4, 4.54333, 4.54333, 4.54333, 4.54333, 4.54333
"SMAStrip (Nitinol)".5, 4.5452, 4.5452, 4.5452, 4.5452, 4.5452
"SMAStrip (Nitinol)".6, 4.54715, 4.54715, 4.54715, 4.54715, 4.54715
"SMAStrip (Nitinol)".7, 4.54915, 4.54915, 4.54915, 4.54915, 4.54915
"SMAStrip (Nitinol)".8, 4.55116, 4.55116, 4.55116, 4.55116, 4.55116
"SMAStrip (Nitinol)".9, 4.55317, 4.55317, 4.55317, 4.55317, 4.55317
"SMAStrip (Nitinol)".10, 4.55519, 4.55519, 4.55519, 4.55519, 4.55519
"SMAStrip (Nitinol)".11, 4.5572, 4.5572, 4.5572, 4.5572, 4.5572
"SMAStrip (Nitinol)".12, 4.55921, 4.55921, 4.55921, 4.55921, 4.55921
"SMAStrip (Nitinol)".13, 4.56122, 4.56122, 4.56122, 4.56122, 4.56122
"SMAStrip (Nitinol)".14, 4.56322, 4.56322, 4.56322, 4.56322, 4.56322
"SMAStrip (Nitinol)".15, 4.56523, 4.56523, 4.56523, 4.56523, 4.56523
"SMAStrip (Nitinol)".16, 4.56723, 4.56723, 4.56723, 4.56723, 4.56723
"SMAStrip (Nitinol)".17, 4.56923, 4.56923, 4.56923, 4.56923, 4.56923
"SMAStrip (Nitinol)".18, 4.57123, 4.57123, 4.57123, 4.57123, 4.57123
"SMAStrip (Nitinol)".19, 4.57323, 4.57323, 4.57323, 4.57323, 4.57323
"SMAStrip (Nitinol)".20, 4.57522, 4.57522, 4.57522, 4.57522, 4.57522
** ... 1091 like lines cut
** ----------------------------------------------------------------
** 
** STEP: Heat_03
** 
*Step, name=Heat_03, nlgeom=YES, inc=200
*Coupled Temperature-displacement, creep=none, deltmx=5.
0.1, 20., 4e-05, 5.
** 
** BOUNDARY CONDITIONS
** 
** Name: FixEdge Type: Symmetry/Antisymmetry/Encastre
*Boundary
Fixed-Set, ENCASTRE
** 
** LOADS
** 
** Name: Load_03   Type: Surface heat flux Using Field: Flux_Field_3
*Dflux
"SMAStrip (Nitinol)".1, SPOS, 11.3028
"SMAStrip (Nitinol)".2, SPOS, 16.3387
"SMAStrip (Nitinol)".3, SPOS, 21.375
"SMAStrip (Nitinol)".4, SPOS, 26.411
"SMAStrip (Nitinol)".5, SPOS, 31.4466
"SMAStrip (Nitinol)".6, SPOS, 36.482
"SMAStrip (Nitinol)".7, SPOS, 41.5168
"SMAStrip (Nitinol)".8, SPOS, 46.5511
"SMAStrip (Nitinol)".9, SPOS, 51.5832
"SMAStrip (Nitinol)".10, SPOS, 56.6154
"SMAStrip (Nitinol)".11, SPOS, 61.6466
"SMAStrip (Nitinol)".12, SPOS, 66.6773
"SMAStrip (Nitinol)".13, SPOS, 71.7051
"SMAStrip (Nitinol)".14, SPOS, 76.7319
"SMAStrip (Nitinol)".15, SPOS, 81.7578
"SMAStrip (Nitinol)".16, SPOS, 86.7817
"SMAStrip (Nitinol)".17, SPOS, 91.8016
"SMAStrip (Nitinol)".18, SPOS, 96.8209
"SMAStrip (Nitinol)".19, SPOS, 101.84
"SMAStrip (Nitinol)".20, SPOS, 106.855
** ... 980 like lines cut
** 
** INTERACTIONS
** 
** Interaction: ToVacuum
*Sradiate, amplitude=InstantVacuum
All-Surfaces, R, 4., 0.75
** 
** OUTPUT REQUESTS
** 
*Restart, write, frequency=0
** 
** FIELD OUTPUT: F-Output-HFL
** 
*Output, field
*Element Output, directions=YES
HFL, 
** 
** FIELD OUTPUT: F-Output-1
** 
*Output, field, variable=PRESELECT
** 
** HISTORY OUTPUT: H-Output-1
** 
*Output, history, variable=PRESELECT
*End Step
