*Heading
 Iteration 12
** Job name: SMAHeatTransient_12 Model name: Model_12
** Generated by: Abaqus/CAE 2025
*Preprint, echo=NO, model=NO, history=NO, contact=NO
**
** PARTS
**
*Part, name="SMAStrip (Nitinol)"
*Node
      1, 0.000287712144,  0.100256912, 0.00553136552
      2,           0., 0.0900259241,           0.
      3,           0., 0.0800227746,           0.
      4,           0., 0.0700196326,           0.
      5,           0., 0.0600164831,           0.
      6,           0., 0.0500133373,           0.
      7,           0., 0.0400101878,           0.
      8,           0.,  0.030007042,           0.
      9,           0., 0.0200038962,           0.
     10,           0., 0.0100007486,           0.
     11, 0.000227076336, -9.29901289e-05, 0.0058046272
     12, 0.00996006466,  0.100146703, 0.0047006188
     13, 0.0101757254, 0.0899406746, 0.00470842747
     14, 0.0102173388, 0.0799453929, 0.00473188655
     15, 0.0102584735, 0.0699500963, 0.00475539034
     16, 0.0102991275, 0.0599547923, 0.0047789393
     17, 0.0103393001, 0.0499594733, 0.00480253296
     18, 0.0103789913, 0.0399641544, 0.00482617179
     19, 0.0104182009, 0.0299688336, 0.00484985532
     20, 0.0104569271, 0.0199735127, 0.00487358449
** ... 1135 like lines cut
*Element, type=S4RT
   1,    1,    2,   13,   12
   2,    2,    3,   14,   13
   3,    3,    4,   15,   14
   4,    4,    5,   16,   15
   5,    5,    6,   17,   16
   6,    6,    7,   18,   17
   7,    7,    8,   19,   18
   8,    8,    9,   20,   19
   9,    9,   10,   21,   20
  10,   10,   11,   22,   21
  11,   12,   13,   24,   23
  12,   13,   14,   25,   24
  13,   14,   15,   26,   25
  14,   15,   16,   27,   26
  15,   16,   17,   28,   27
  16,   17,   18,   29,   28
  17,   18,   19,   30,   29
  18,   19,   20,   31,   30
  19,   20,   21,   32,   31
  20,   21,   22,   33,   32
** ... 1020 like lines cut
*Nset, nset=Set-1, generate
    1,  1155,     1
*Elset, elset=Set-1, generate
    1,  1040,     1
** Section: CompositeSection-1
*Shell Section, elset=Set-1, composite
0.0025, 3, Aluminum, 0., a
0.0025, 3, FakeSMA, 0., b
*End Part
**  
**
** ASSEMBLY
**
*Assembly, name=Assembly
**  
*Instance, name="SMAStrip (Nitinol)", part="SMAStrip (Nitinol)"
*End Instance
**  
*Nset, nset=Fixed-Set, instance="SMAStrip (Nitinol)", generate
  2,  10,   1
*Elset, elset=Fixed-Set, instance="SMAStrip (Nitinol)", generate
 2,  9,  1
*Nset, nset=Set-Temp, instance="SMAStrip (Nitinol)", generate
    1,  1155,     1
*Elset, elset=Set-Temp, instance="SMAStrip (Nitinol)", generate
    1,  1040,     1
*Elset, elset=_All-Surfaces_SPOS, internal, instance="SMAStrip (Nitinol)", generate
    1,  1040,     1
*Surface, type=ELEMENT, name=All-Surfaces
_All-Surfaces_SPOS, SPOS
*End Assembly
*Amplitude, name=InstantVacuum
             0.,              1.,              4.,              1.
** 
** MATERIALS
** 
*Material, name=Aluminum
*Conductivity
100.,
*Density
2300.,
*Elastic
 7e+10, 0.3
*Expansion
0.,
*Specific Heat
900.,
*Material, name=FakeSMA
*Conductivity
50.,
*Density
6450.,
*Elastic
 9e+10, 0.3
*Expansion
 0.0025,
*Specific Heat
800.,
** 
** PHYSICAL CONSTANTS
** 
*Physical Constants, absolute zero=0., stefan boltzmann=5.67e-08
** 
** PREDEFINED FIELDS
** 
** Name: Temp0   Type: Temperature Using Field: TempField_Initial
*Initial Conditions, type=TEMPERATURE
"SMAStrip (Nitinol)".1, 5.86755, 5.86755, 5.86755, 5.86755, 5.86755
"SMAStrip (Nitinol)".2, 5.86918, 5.86918, 5.86918, 5.86918, 5.86918
"SMAStrip (Nitinol)".3, 5.87376, 5.87376, 5.87376, 5.87376, 5.87376
"SMAStrip (Nitinol)".4, 5.88009, 5.88009, 5.88009, 5.88009, 5.88009
"SMAStrip (Nitinol)".5, 5.88627, 5.88627, 5.88627, 5.88627, 5.88627
"SMAStrip (Nitinol)".6, 5.89063, 5.89063, 5.89063, 5.89063, 5.89063
"SMAStrip (Nitinol)".7, 5.89246, 5.89246, 5.89246, 5.89246, 5.89246
"SMAStrip (Nitinol)".8, 5.89213, 5.89213, 5.89213, 5.89213, 5.89213
"SMAStrip (Nitinol)".9, 5.89067, 5.89067, 5.89067, 5.89067, 5.89067
"SMAStrip (Nitinol)".10, 5.88928, 5.88928, 5.88928, 5.88928, 5.88928
"SMAStrip (Nitinol)".11, 5.88871, 5.88871, 5.88871, 5.88871, 5.88871
"SMAStrip (Nitinol)".12, 5.86993, 5.86993, 5.86993, 5.86993, 5.86993
"SMAStrip (Nitinol)".13, 5.87195, 5.87195, 5.87195, 5.87195, 5.87195
"SMAStrip (Nitinol)".14, 5.87606, 5.87606, 5.87606, 5.87606, 5.87606
"SMAStrip (Nitinol)".15, 5.8819, 5.8819, 5.8819, 5.8819, 5.8819
"SMAStrip (Nitinol)".16, 5.88756, 5.88756, 5.88756, 5.88756, 5.88756
"SMAStrip (Nitinol)".17, 5.8915, 5.8915, 5.8915, 5.8915, 5.8915
"SMAStrip (Nitinol)".18, 5.89309, 5.89309, 5.89309, 5.89309, 5.89309
"SMAStrip (Nitinol)".19, 5.8927, 5.8927, 5.8927, 5.8927, 5.8927
"SMAStrip (Nitinol)".20, 5.89128, 5.89128, 5.89128, 5.89128, 5.89128
** ... 1135 like lines cut
** ----------------------------------------------------------------
** 
** STEP: Heat_12
** 
*Step, name=Heat_12, nlgeom=NO, inc=200
*Coupled Temperature-displacement, creep=none, deltmx=2.
0.5, 5., 4e-05, 5.
** 
** BOUNDARY CONDITIONS
** 
** Name: FixEdge Type: Symmetry/Antisymmetry/Encastre
*Boundary
Fixed-Set, ENCASTRE
** 
** LOADS
** 
** Name: Load_12   Type: Surface heat flux Using Field: AnalyticalField-1
*Dflux
"SMAStrip (Nitinol)".1, SPOS, 1016.96
"SMAStrip (Nitinol)".2, SPOS, 1017.01
"SMAStrip (Nitinol)".3, SPOS, 1017.01
"SMAStrip (Nitinol)".4, SPOS, 1016.97
"SMAStrip (Nitinol)".5, SPOS, 1016.99
"SMAStrip (Nitinol)".6, SPOS, 1016.98
"SMAStrip (Nitinol)".7, SPOS, 1016.93
"SMAStrip (Nitinol)".8, SPOS, 1017.01
"SMAStrip (Nitinol)".9, SPOS, 1017.1
"SMAStrip (Nitinol)".10, SPOS, 1017.05
"SMAStrip (Nitinol)".11, SPOS, 1015.57
"SMAStrip (Nitinol)".12, SPOS, 1015.59
"SMAStrip (Nitinol)".13, SPOS, 1015.58
"SMAStrip (Nitinol)".14, SPOS, 1015.59
"SMAStrip (Nitinol)".15, SPOS, 1015.57
"SMAStrip (Nitinol)".16, SPOS, 1015.59
"SMAStrip (Nitinol)".17, SPOS, 1015.59
"SMAStrip (Nitinol)".18, SPOS, 1015.58
"SMAStrip (Nitinol)".19, SPOS, 1015.59
"SMAStrip (Nitinol)".20, SPOS, 1015.62
** ... 954 like lines cut
** 
** INTERACTIONS
** 
** Interaction: ToVacuum
*Sradiate, amplitude=InstantVacuum
All-Surfaces, R, 4., 1.
** 
** OUTPUT REQUESTS
** 
*Restart, write, frequency=0
** 
** FIELD OUTPUT: F-Output-1
** 
*Output, field, variable=PRESELECT
** 
** HISTORY OUTPUT: H-Output-1
** 
*Output, history, variable=PRESELECT
*End Step
