*Heading
 Iteration 7
** Job name: SMAHeatTransient_07 Model name: Model_07
** Generated by: Abaqus/CAE 2025
*Preprint, echo=NO, model=NO, history=NO, contact=NO
**
** PARTS
**
*Part, name="SMAStrip (Nitinol)"
*Node
      1,  0.818836451, 0.0999211967, -0.515818417
      2,  0.813275397, 0.0999229774, -0.507506967
      3,  0.807644904, 0.0999248475, -0.499240339
      4,  0.801945269, 0.0999267921, -0.491019249
      5,  0.796177804, 0.0999288112, -0.482845396
      6,  0.790342331, 0.0999308825,  -0.47471866
      7,  0.784439266, 0.0999330059, -0.466639608
      8,  0.778468966, 0.0999351665, -0.458608866
      9,   0.77243197, 0.0999373496, -0.450627089
     10,  0.766328633, 0.0999395475, -0.442694873
     11,  0.760158896, 0.0999417529, -0.434812069
     12,  0.753923893, 0.0999439508, -0.426980317
     13,  0.747624099, 0.0999461338, -0.419200152
     14,  0.741259992,  0.099948287, -0.411472172
     15,  0.734832048, 0.0999504104, -0.403796971
     16,  0.728339911,  0.099952504, -0.396174133
     17,  0.721784472, 0.0999545604,  -0.38860479
     18,  0.715166211, 0.0999565795, -0.381089538
     19,  0.708485663, 0.0999585614, -0.373628855
     20,  0.701743186,  0.099960506, -0.366223335
** ... 1091 like lines cut
*Element, type=S4RT
   1,    1,    2,  103,  102
   2,    2,    3,  104,  103
   3,    3,    4,  105,  104
   4,    4,    5,  106,  105
   5,    5,    6,  107,  106
   6,    6,    7,  108,  107
   7,    7,    8,  109,  108
   8,    8,    9,  110,  109
   9,    9,   10,  111,  110
  10,   10,   11,  112,  111
  11,   11,   12,  113,  112
  12,   12,   13,  114,  113
  13,   13,   14,  115,  114
  14,   14,   15,  116,  115
  15,   15,   16,  117,  116
  16,   16,   17,  118,  117
  17,   17,   18,  119,  118
  18,   18,   19,  120,  119
  19,   19,   20,  121,  120
  20,   20,   21,  122,  121
** ... 980 like lines cut
*Nset, nset=Set-1, generate
    1,  1111,     1
*Elset, elset=Set-1, generate
    1,  1000,     1
** Section: CompositeSection-1
*Shell Section, elset=Set-1, composite
0.0025, 3, Aluminum, 0., a
0.0025, 3, FakeSMA, 0., b
*End Part
**  
**
** ASSEMBLY
**
*Assembly, name=Assembly
**  
*Instance, name="SMAStrip (Nitinol)", part="SMAStrip (Nitinol)"
*End Instance
**  
*Nset, nset=Fixed-Set, instance="SMAStrip (Nitinol)"
  100,  101,  202,  303,  404,  505,  606,  707,  808,  909, 1010, 1111
*Elset, elset=Fixed-Set, instance="SMAStrip (Nitinol)", generate
  100,  1000,   100
*Nset, nset=Set-Temp, instance="SMAStrip (Nitinol)", generate
    1,  1111,     1
*Elset, elset=Set-Temp, instance="SMAStrip (Nitinol)", generate
    1,  1000,     1
*Elset, elset=_All-Surfaces_SPOS, internal, instance="SMAStrip (Nitinol)", generate
    1,  1000,     1
*Surface, type=ELEMENT, name=All-Surfaces
_All-Surfaces_SPOS, SPOS
*End Assembly
*Amplitude, name=InstantVacuum
             0.,              1.,              4.,              1.
** 
** MATERIALS
** 
*Material, name=Aluminum
*Conductivity
100.,
*Density
2300.,
*Elastic
 7e+10, 0.3
*Expansion
0.,
*Specific Heat
900.,
*Material, name=FakeSMA
*Conductivity
50.,
*Density
6450.,
*Elastic
 9e+10, 0.3
*Expansion
 0.0025,
*Specific Heat
800.,
** 
** PHYSICAL CONSTANTS
** 
*Physical Constants, absolute zero=0., stefan boltzmann=5.67e-08
** 
** PREDEFINED FIELDS
** 
** Name: Temp0   Type: Temperature Using Field: TempField_Initial
*Initial Conditions, type=TEMPERATURE
"SMAStrip (Nitinol)".1, 4.56422, 4.56422, 4.56422, 4.56422, 4.56422
"SMAStrip (Nitinol)".2, 4.56472, 4.56472, 4.56472, 4.56472, 4.56472
"SMAStrip (Nitinol)".3, 4.56618, 4.56618, 4.56618, 4.56618, 4.56618
"SMAStrip (Nitinol)".4, 4.56853, 4.56853, 4.56853, 4.56853, 4.56853
"SMAStrip (Nitinol)".5, 4.57167, 4.57167, 4.57167, 4.57167, 4.57167
"SMAStrip (Nitinol)".6, 4.57546, 4.57546, 4.57546, 4.57546, 4.57546
"SMAStrip (Nitinol)".7, 4.57977, 4.57977, 4.57977, 4.57977, 4.57977
"SMAStrip (Nitinol)".8, 4.58447, 4.58447, 4.58447, 4.58447, 4.58447
"SMAStrip (Nitinol)".9, 4.58943, 4.58943, 4.58943, 4.58943, 4.58943
"SMAStrip (Nitinol)".10, 4.59453, 4.59453, 4.59453, 4.59453, 4.59453
"SMAStrip (Nitinol)".11, 4.59967, 4.59967, 4.59967, 4.59967, 4.59967
"SMAStrip (Nitinol)".12, 4.60477, 4.60477, 4.60477, 4.60477, 4.60477
"SMAStrip (Nitinol)".13, 4.60974, 4.60974, 4.60974, 4.60974, 4.60974
"SMAStrip (Nitinol)".14, 4.61456, 4.61456, 4.61456, 4.61456, 4.61456
"SMAStrip (Nitinol)".15, 4.61925, 4.61925, 4.61925, 4.61925, 4.61925
"SMAStrip (Nitinol)".16, 4.62386, 4.62386, 4.62386, 4.62386, 4.62386
"SMAStrip (Nitinol)".17, 4.62853, 4.62853, 4.62853, 4.62853, 4.62853
"SMAStrip (Nitinol)".18, 4.63341, 4.63341, 4.63341, 4.63341, 4.63341
"SMAStrip (Nitinol)".19, 4.63864, 4.63864, 4.63864, 4.63864, 4.63864
"SMAStrip (Nitinol)".20, 4.64434, 4.64434, 4.64434, 4.64434, 4.64434
** ... 1091 like lines cut
** ----------------------------------------------------------------
** 
** STEP: Heat_07
** 
*Step, name=Heat_07, nlgeom=YES, inc=200
*Coupled Temperature-displacement, creep=none, deltmx=5.
0.1, 20., 4e-05, 5.
** 
** BOUNDARY CONDITIONS
** 
** Name: FixEdge Type: Symmetry/Antisymmetry/Encastre
*Boundary
Fixed-Set, ENCASTRE
** 
** LOADS
** 
** Name: Load_07   Type: Surface heat flux Using Field: Flux_Field_7
*Dflux
"SMAStrip (Nitinol)".1, SPOS, -450.902
"SMAStrip (Nitinol)".2, SPOS, -443.325
"SMAStrip (Nitinol)".3, SPOS, -435.717
"SMAStrip (Nitinol)".4, SPOS, -428.08
"SMAStrip (Nitinol)".5, SPOS, -420.411
"SMAStrip (Nitinol)".6, SPOS, -412.713
"SMAStrip (Nitinol)".7, SPOS, -404.986
"SMAStrip (Nitinol)".8, SPOS, -402.953
"SMAStrip (Nitinol)".9, SPOS, -401.968
"SMAStrip (Nitinol)".10, SPOS, -381.422
"SMAStrip (Nitinol)".11, SPOS, -364.968
"SMAStrip (Nitinol)".12, SPOS, -364.968
"SMAStrip (Nitinol)".13, SPOS, -364.968
"SMAStrip (Nitinol)".14, SPOS, -364.968
"SMAStrip (Nitinol)".52, SPOS, -20.6383
"SMAStrip (Nitinol)".53, SPOS, -20.6383
"SMAStrip (Nitinol)".54, SPOS, -20.6383
"SMAStrip (Nitinol)".55, SPOS, -11.1411
"SMAStrip (Nitinol)".56, SPOS, 3.30711
"SMAStrip (Nitinol)".57, SPOS, 5.74497
** ... 582 like lines cut
** 
** INTERACTIONS
** 
** Interaction: ToVacuum
*Sradiate, amplitude=InstantVacuum
All-Surfaces, R, 4., 0.75
** 
** OUTPUT REQUESTS
** 
*Restart, write, frequency=0
** 
** FIELD OUTPUT: F-Output-HFL
** 
*Output, field
*Element Output, directions=YES
HFL, 
** 
** FIELD OUTPUT: F-Output-1
** 
*Output, field, variable=PRESELECT
** 
** HISTORY OUTPUT: H-Output-1
** 
*Output, history, variable=PRESELECT
*End Step
