*Heading
 Iteration 7
** Job name: SMAHeatTransient_07 Model name: Model_07
** Generated by: Abaqus/CAE 2025
*Preprint, echo=NO, model=NO, history=NO, contact=NO
**
** PARTS
**
*Part, name="SMAStrip (Nitinol)"
*Node
      1,  0.818967521, 0.0999250114, -0.515606105
      2,  0.813400686, 0.0999267623, -0.507299185
      3,   0.80776453, 0.0999285951, -0.499037147
      4,  0.802059412, 0.0999305099, -0.490820616
      5,  0.796286583, 0.0999324918, -0.482651323
      6,  0.790445805, 0.0999345183, -0.474529088
      7,  0.784537613,  0.099936597, -0.466454595
      8,  0.778562307,  0.099938713, -0.458428383
      9,  0.772520423, 0.0999408439, -0.450451106
     10,  0.766412318, 0.0999429896,  -0.44252336
     11,  0.760237873, 0.0999451354, -0.434645057
     12,  0.753998339, 0.0999472737, -0.426817745
     13,  0.747694135, 0.0999493971, -0.419042021
     14,  0.741325796, 0.0999514833, -0.411318451
     15,   0.73489362, 0.0999535397, -0.403647631
     16,  0.728397429, 0.0999555588, -0.396029115
     17,  0.721838057, 0.0999575406, -0.388464123
     18,  0.715215981, 0.0999594927, -0.380953133
     19,  0.708531618,    0.0999614, -0.373496711
     20,  0.701785564, 0.0999632701, -0.366095394
** ... 1091 like lines cut
*Element, type=S4RT
   1,    1,    2,  103,  102
   2,    2,    3,  104,  103
   3,    3,    4,  105,  104
   4,    4,    5,  106,  105
   5,    5,    6,  107,  106
   6,    6,    7,  108,  107
   7,    7,    8,  109,  108
   8,    8,    9,  110,  109
   9,    9,   10,  111,  110
  10,   10,   11,  112,  111
  11,   11,   12,  113,  112
  12,   12,   13,  114,  113
  13,   13,   14,  115,  114
  14,   14,   15,  116,  115
  15,   15,   16,  117,  116
  16,   16,   17,  118,  117
  17,   17,   18,  119,  118
  18,   18,   19,  120,  119
  19,   19,   20,  121,  120
  20,   20,   21,  122,  121
** ... 980 like lines cut
*Nset, nset=Set-1, generate
    1,  1111,     1
*Elset, elset=Set-1, generate
    1,  1000,     1
** Section: CompositeSection-1
*Shell Section, elset=Set-1, composite
0.0025, 3, Aluminum, 0., a
0.0025, 3, FakeSMA, 0., b
*End Part
**  
**
** ASSEMBLY
**
*Assembly, name=Assembly
**  
*Instance, name="SMAStrip (Nitinol)", part="SMAStrip (Nitinol)"
*End Instance
**  
*Nset, nset=Fixed-Set, instance="SMAStrip (Nitinol)"
  100,  101,  202,  303,  404,  505,  606,  707,  808,  909, 1010, 1111
*Elset, elset=Fixed-Set, instance="SMAStrip (Nitinol)", generate
  100,  1000,   100
*Nset, nset=Set-Temp, instance="SMAStrip (Nitinol)", generate
    1,  1111,     1
*Elset, elset=Set-Temp, instance="SMAStrip (Nitinol)", generate
    1,  1000,     1
*Elset, elset=_All-Surfaces_SPOS, internal, instance="SMAStrip (Nitinol)", generate
    1,  1000,     1
*Surface, type=ELEMENT, name=All-Surfaces
_All-Surfaces_SPOS, SPOS
*End Assembly
*Amplitude, name=InstantVacuum
             0.,              1.,              4.,              1.
** 
** MATERIALS
** 
*Material, name=Aluminum
*Conductivity
100.,
*Density
2300.,
*Elastic
 7e+10, 0.3
*Expansion
0.,
*Specific Heat
900.,
*Material, name=FakeSMA
*Conductivity
50.,
*Density
6450.,
*Elastic
 9e+10, 0.3
*Expansion
 0.0025,
*Specific Heat
800.,
** 
** PHYSICAL CONSTANTS
** 
*Physical Constants, absolute zero=0., stefan boltzmann=5.67e-08
** 
** PREDEFINED FIELDS
** 
** Name: Temp0   Type: Temperature Using Field: TempField_Initial
*Initial Conditions, type=TEMPERATURE
"SMAStrip (Nitinol)".1, 4.56375, 4.56375, 4.56375, 4.56375, 4.56375
"SMAStrip (Nitinol)".2, 4.56424, 4.56424, 4.56424, 4.56424, 4.56424
"SMAStrip (Nitinol)".3, 4.56573, 4.56573, 4.56573, 4.56573, 4.56573
"SMAStrip (Nitinol)".4, 4.56811, 4.56811, 4.56811, 4.56811, 4.56811
"SMAStrip (Nitinol)".5, 4.57129, 4.57129, 4.57129, 4.57129, 4.57129
"SMAStrip (Nitinol)".6, 4.57514, 4.57514, 4.57514, 4.57514, 4.57514
"SMAStrip (Nitinol)".7, 4.57953, 4.57953, 4.57953, 4.57953, 4.57953
"SMAStrip (Nitinol)".8, 4.58432, 4.58432, 4.58432, 4.58432, 4.58432
"SMAStrip (Nitinol)".9, 4.58939, 4.58939, 4.58939, 4.58939, 4.58939
"SMAStrip (Nitinol)".10, 4.59465, 4.59465, 4.59465, 4.59465, 4.59465
"SMAStrip (Nitinol)".11, 4.59999, 4.59999, 4.59999, 4.59999, 4.59999
"SMAStrip (Nitinol)".12, 4.60535, 4.60535, 4.60535, 4.60535, 4.60535
"SMAStrip (Nitinol)".13, 4.61066, 4.61066, 4.61066, 4.61066, 4.61066
"SMAStrip (Nitinol)".14, 4.61587, 4.61587, 4.61587, 4.61587, 4.61587
"SMAStrip (Nitinol)".15, 4.62094, 4.62094, 4.62094, 4.62094, 4.62094
"SMAStrip (Nitinol)".16, 4.62588, 4.62588, 4.62588, 4.62588, 4.62588
"SMAStrip (Nitinol)".17, 4.63071, 4.63071, 4.63071, 4.63071, 4.63071
"SMAStrip (Nitinol)".18, 4.63552, 4.63552, 4.63552, 4.63552, 4.63552
"SMAStrip (Nitinol)".19, 4.64042, 4.64042, 4.64042, 4.64042, 4.64042
"SMAStrip (Nitinol)".20, 4.64555, 4.64555, 4.64555, 4.64555, 4.64555
** ... 1091 like lines cut
** ----------------------------------------------------------------
** 
** STEP: Heat_07
** 
*Step, name=Heat_07, nlgeom=YES, inc=200
*Coupled Temperature-displacement, creep=none, deltmx=5.
0.1, 20., 4e-05, 5.
** 
** BOUNDARY CONDITIONS
** 
** Name: FixEdge Type: Symmetry/Antisymmetry/Encastre
*Boundary
Fixed-Set, ENCASTRE
** 
** LOADS
** 
** Name: Load_07   Type: Surface heat flux Using Field: AnalyticalField-1
*Dflux
"SMAStrip (Nitinol)".1, SPOS, -450.235
"SMAStrip (Nitinol)".2, SPOS, -442.667
"SMAStrip (Nitinol)".3, SPOS, -435.065
"SMAStrip (Nitinol)".4, SPOS, -427.433
"SMAStrip (Nitinol)".5, SPOS, -419.772
"SMAStrip (Nitinol)".6, SPOS, -412.081
"SMAStrip (Nitinol)".7, SPOS, -404.36
"SMAStrip (Nitinol)".8, SPOS, -400.691
"SMAStrip (Nitinol)".9, SPOS, -401.326
"SMAStrip (Nitinol)".10, SPOS, -365.633
"SMAStrip (Nitinol)".11, SPOS, -365.559
"SMAStrip (Nitinol)".12, SPOS, -365.377
"SMAStrip (Nitinol)".13, SPOS, -365.388
"SMAStrip (Nitinol)".14, SPOS, -365.464
"SMAStrip (Nitinol)".57, SPOS, 26.3581
"SMAStrip (Nitinol)".58, SPOS, 28.4504
"SMAStrip (Nitinol)".59, SPOS, 31.2813
"SMAStrip (Nitinol)".60, SPOS, 32.9771
"SMAStrip (Nitinol)".61, SPOS, 39.6256
"SMAStrip (Nitinol)".62, SPOS, 48.0398
** ... 579 like lines cut
** 
** INTERACTIONS
** 
** Interaction: ToVacuum
*Sradiate, amplitude=InstantVacuum
All-Surfaces, R, 4., 0.75
** 
** OUTPUT REQUESTS
** 
*Restart, write, frequency=0
** 
** FIELD OUTPUT: F-Output-HFL
** 
*Output, field
*Element Output, directions=YES
HFL, 
** 
** FIELD OUTPUT: F-Output-1
** 
*Output, field, variable=PRESELECT
** 
** HISTORY OUTPUT: H-Output-1
** 
*Output, history, variable=PRESELECT
*End Step
