*Heading
 Comparison run (no iteration)
** Job name: SMAHeatTransient_Comparison Model name: Model_Comparison
** Generated by: Abaqus/CAE 2025
*Preprint, echo=NO, model=NO, history=NO, contact=NO
**
** PARTS
**
*Part, name=SMAStrip_(Nitinol)
*Node
      1,           0.,           0.,           0.
      2, 0.00999999978,           0.,           0.
      3, 0.0199999996,           0.,           0.
      4, 0.0299999993,           0.,           0.
      5, 0.0399999991,           0.,           0.
      6, 0.0500000007,           0.,           0.
      7, 0.0599999987,           0.,           0.
      8, 0.0700000003,           0.,           0.
      9, 0.0799999982,           0.,           0.
     10, 0.0900000036,           0.,           0.
     11,  0.100000001,           0.,           0.
     12,  0.109999999,           0.,           0.
     13,  0.119999997,           0.,           0.
     14,  0.129999995,           0.,           0.
     15,  0.140000001,           0.,           0.
     16,  0.150000006,           0.,           0.
     17,  0.159999996,           0.,           0.
     18,  0.170000002,           0.,           0.
     19,  0.180000007,           0.,           0.
     20,  0.189999998,           0.,           0.
** ... 1091 like lines cut
*Element, type=S4RT
   1,    1,    2,  103,  102
   2,    2,    3,  104,  103
   3,    3,    4,  105,  104
   4,    4,    5,  106,  105
   5,    5,    6,  107,  106
   6,    6,    7,  108,  107
   7,    7,    8,  109,  108
   8,    8,    9,  110,  109
   9,    9,   10,  111,  110
  10,   10,   11,  112,  111
  11,   11,   12,  113,  112
  12,   12,   13,  114,  113
  13,   13,   14,  115,  114
  14,   14,   15,  116,  115
  15,   15,   16,  117,  116
  16,   16,   17,  118,  117
  17,   17,   18,  119,  118
  18,   18,   19,  120,  119
  19,   19,   20,  121,  120
  20,   20,   21,  122,  121
** ... 980 like lines cut
*Nset, nset=Set-1, generate
    1,  1111,     1
*Elset, elset=Set-1, generate
    1,  1000,     1
** Section: CompositeSection-1
*Shell Section, elset=Set-1, composite
0.0025, 3, Aluminum, 0., a
0.0025, 3, FakeSMA, 0., b
*End Part
**  
**
** ASSEMBLY
**
*Assembly, name=Assembly
**  
*Instance, name=SMAStrip_(Nitinol), part=SMAStrip_(Nitinol)
*End Instance
**  
*Nset, nset=Fixed-Set, instance=SMAStrip_(Nitinol), generate
    1,  1011,   101
*Elset, elset=Fixed-Set, instance=SMAStrip_(Nitinol), generate
   1,  901,  100
*Nset, nset=Set-Temp, instance=SMAStrip_(Nitinol), generate
    1,  1111,     1
*Elset, elset=Set-Temp, instance=SMAStrip_(Nitinol), generate
    1,  1000,     1
*Elset, elset=_All-Surfaces_SPOS, internal, instance=SMAStrip_(Nitinol), generate
    1,  1000,     1
*Surface, type=ELEMENT, name=All-Surfaces
_All-Surfaces_SPOS, SPOS
*End Assembly
*Amplitude, name=InstantVacuum
             0.,              1.,              4.,              1.
** 
** MATERIALS
** 
*Material, name=Aluminum
*Conductivity
100.,
*Density
2300.,
*Elastic
 7e+10, 0.3
*Expansion
0.,
*Specific Heat
900.,
*Material, name=FakeSMA
*Conductivity
50.,
*Density
6450.,
*Elastic
 9e+10, 0.3
*Expansion
 0.0025,
*Specific Heat
800.,
** 
** PHYSICAL CONSTANTS
** 
*Physical Constants, absolute zero=0., stefan boltzmann=5.67e-08
** 
** PREDEFINED FIELDS
** 
** Name: Temp0   Type: Temperature
*Initial Conditions, type=TEMPERATURE
Set-Temp, 300., 300., 300., 300., 300.
** ----------------------------------------------------------------
** 
** STEP: Heat_Comparison
** 
*Step, name=Heat_Comparison, nlgeom=YES, inc=200
*Coupled Temperature-displacement, creep=none, deltmx=5.
0.1, 180., 4e-05, 5.
** 
** BOUNDARY CONDITIONS
** 
** Name: FixEdge Type: Symmetry/Antisymmetry/Encastre
*Boundary
Fixed-Set, ENCASTRE
** 
** LOADS
** 
** Name: Load_Comparison   Type: Surface heat flux Using Field: Flux_Field_Comparison
*Dflux
SMAStrip_(Nitinol).1, SPOS, 510.375
SMAStrip_(Nitinol).2, SPOS, 510.375
SMAStrip_(Nitinol).3, SPOS, 510.375
SMAStrip_(Nitinol).4, SPOS, 510.375
SMAStrip_(Nitinol).5, SPOS, 510.375
SMAStrip_(Nitinol).6, SPOS, 510.375
SMAStrip_(Nitinol).7, SPOS, 510.375
SMAStrip_(Nitinol).8, SPOS, 510.375
SMAStrip_(Nitinol).9, SPOS, 510.375
SMAStrip_(Nitinol).10, SPOS, 510.375
SMAStrip_(Nitinol).11, SPOS, 510.375
SMAStrip_(Nitinol).12, SPOS, 510.375
SMAStrip_(Nitinol).13, SPOS, 510.375
SMAStrip_(Nitinol).14, SPOS, 510.375
SMAStrip_(Nitinol).15, SPOS, 510.375
SMAStrip_(Nitinol).16, SPOS, 510.375
SMAStrip_(Nitinol).17, SPOS, 510.375
SMAStrip_(Nitinol).18, SPOS, 510.375
SMAStrip_(Nitinol).19, SPOS, 510.375
SMAStrip_(Nitinol).20, SPOS, 510.375
** ... 980 like lines cut
** 
** INTERACTIONS
** 
** Interaction: ToVacuum
*Sradiate, amplitude=InstantVacuum
All-Surfaces, R, 4., 0.75
** 
** OUTPUT REQUESTS
** 
*Restart, write, frequency=0
** 
** FIELD OUTPUT: F-Output-HFL
** 
*Output, field
*Element Output, directions=YES
HFL, 
** 
** FIELD OUTPUT: F-Output-1
** 
*Output, field, variable=PRESELECT
** 
** HISTORY OUTPUT: H-Output-1
** 
*Output, history, variable=PRESELECT
*End Step
