*Heading
 Iteration 9
** Job name: SMAHeatTransient_09 Model name: Model_09
** Generated by: Abaqus/CAE 2025
*Preprint, echo=NO, model=NO, history=NO, contact=NO
**
** PARTS
**
*Part, name="SMAStrip (Nitinol)"
*Node
      1,           0., 0.0800067261,           0.
      2,           0., 0.0700044855,           0.
      3,           0., 0.0600022413,           0.
      4,           0., 0.0500000007,           0.
      5,           0., 0.0399977602,           0.
      6,           0., 0.0299955178,           0.
      7,           0., 0.0199932773,           0.
      8,           0., 0.0900089666,           0.
      9,           0., 0.0099910358,           0.
     10, 0.000752488268, 0.00499817031, 0.00635256153
     11, 0.00150497654, 5.30455964e-06, 0.0127051231
     12, 0.0117520681, -0.000100736237, 0.0124998949
     13, 0.0214962736, -0.000191158557, 0.0101245744
     14, 0.0409169719, -0.000293893623, 0.00512898574
     15,  0.050593432, -0.000312819495, 0.00250886241
     16, 0.0602459162, -0.000314519944, -0.00019236152
     17, 0.0698738322, -0.000302299915, -0.00297445105
     18, 0.0890528932, -0.000249318662, -0.00878007244
     19, 0.0986031666, -0.000215164735, -0.0118032154
     20,  0.108126834, -0.000180305098, -0.014906371
** ... 1147 like lines cut
*Element, type=S3T
 1, 1060,  202, 1058
 2,  450, 1105,  459
 3, 1096, 1075, 1074
 4,  667,  660,  661
 5,  557,  542,  549
 6,  230,  231,  221
 7,  320,  321,  325
 8, 1161,  379,  371
 9,  497,  488, 1124
10,  520,  519, 1135
11,  528,  535,  536
12,  560,  559,  566
13, 1145,  637,  645
14,  638,  639,  630
15, 1098,  697,  696
16, 1112,  759,  758
17, 1162,  868,  869
18, 1157, 1120,  885
19, 1107,  911,  918
20,  409, 1143,  410
21, 1159,  776,  785
22,  371,  381,  372
*Element, type=S4RT
  23,  183,  184, 1058,  202
  24,  182,  208,  209,  181
  25,  209,  224,  180,  181
  26,  180,  224,  233,  179
  27,  179,  233,  242,  178
  28,  178,  242,  251,  177
  29,  196,  197,   10,   11
  30,  196,   11,   12, 1017
  31,  217,  226,  227,  218
  32,  228,  227,  236,  237
  33,  238,  237,  246,  247
  34,  248,  247,  255,  256
  35,  262,  257,  256,  263
  36,  261,  262,  273,  274
  37,  283,  275,  274,  282
  38,  174,  275,  283,  173
  39,  275,  174,  175,  260
  40,  261,  260,  259,  258
  41,  257,  258,  250,  249
  42,  248,  249,  240,  239
** ... 1025 like lines cut
*Nset, nset=Set-1, generate
    1,  1167,     1
*Elset, elset=Set-1, generate
    1,  1067,     1
** Section: CompositeSection-1
*Shell Section, elset=Set-1, composite
0.0025, 3, Aluminum, 0., a
0.0025, 3, FakeSMA, 0., b
*End Part
**  
**
** ASSEMBLY
**
*Assembly, name=Assembly
**  
*Instance, name="SMAStrip (Nitinol)", part="SMAStrip (Nitinol)"
*End Instance
**  
*Nset, nset=Fixed-Set, instance="SMAStrip (Nitinol)"
   1,   2,   3,   4,   5,   6,   7,   8,   9,  10,  11, 183, 184
*Elset, elset=Fixed-Set, instance="SMAStrip (Nitinol)"
   23,   29,   48,   49,   61,   63, 1010, 1011, 1012, 1029, 1033, 1034
*Nset, nset=Set-Temp, instance="SMAStrip (Nitinol)", generate
    1,  1167,     1
*Elset, elset=Set-Temp, instance="SMAStrip (Nitinol)", generate
    1,  1067,     1
*Elset, elset=_All-Surfaces_SPOS, internal, instance="SMAStrip (Nitinol)", generate
    1,  1067,     1
*Surface, type=ELEMENT, name=All-Surfaces
_All-Surfaces_SPOS, SPOS
*End Assembly
*Amplitude, name=InstantVacuum
             0.,              1.,              4.,              1.
** 
** MATERIALS
** 
*Material, name=Aluminum
*Conductivity
100.,
*Density
2300.,
*Elastic
 7e+10, 0.3
*Expansion
0.,
*Specific Heat
900.,
*Material, name=FakeSMA
*Conductivity
50.,
*Density
6450.,
*Elastic
 9e+10, 0.3
*Expansion
 0.0025,
*Specific Heat
800.,
** 
** PHYSICAL CONSTANTS
** 
*Physical Constants, absolute zero=0., stefan boltzmann=5.67e-08
** 
** PREDEFINED FIELDS
** 
** Name: Temp0   Type: Temperature Using Field: TempField_Initial
*Initial Conditions, type=TEMPERATURE
"SMAStrip (Nitinol)".1, 6.42304, 6.42304, 6.42304, 6.42304, 6.42304
"SMAStrip (Nitinol)".2, 6.42411, 6.42411, 6.42411, 6.42411, 6.42411
"SMAStrip (Nitinol)".3, 6.42476, 6.42476, 6.42476, 6.42476, 6.42476
"SMAStrip (Nitinol)".4, 6.42502, 6.42502, 6.42502, 6.42502, 6.42502
"SMAStrip (Nitinol)".5, 6.42501, 6.42501, 6.42501, 6.42501, 6.42501
"SMAStrip (Nitinol)".6, 6.42493, 6.42493, 6.42493, 6.42493, 6.42493
"SMAStrip (Nitinol)".7, 6.42479, 6.42479, 6.42479, 6.42479, 6.42479
"SMAStrip (Nitinol)".8, 6.4218, 6.4218, 6.4218, 6.4218, 6.4218
"SMAStrip (Nitinol)".9, 6.42395, 6.42395, 6.42395, 6.42395, 6.42395
"SMAStrip (Nitinol)".10, 6.42168, 6.42168, 6.42168, 6.42168, 6.42168
"SMAStrip (Nitinol)".11, 6.4194, 6.4194, 6.4194, 6.4194, 6.4194
"SMAStrip (Nitinol)".12, 6.41458, 6.41458, 6.41458, 6.41458, 6.41458
"SMAStrip (Nitinol)".13, 6.40175, 6.40175, 6.40175, 6.40175, 6.40175
"SMAStrip (Nitinol)".14, 6.36214, 6.36214, 6.36214, 6.36214, 6.36214
"SMAStrip (Nitinol)".15, 6.33777, 6.33777, 6.33777, 6.33777, 6.33777
"SMAStrip (Nitinol)".16, 6.31128, 6.31128, 6.31128, 6.31128, 6.31128
"SMAStrip (Nitinol)".17, 6.28325, 6.28325, 6.28325, 6.28325, 6.28325
"SMAStrip (Nitinol)".18, 6.2241, 6.2241, 6.2241, 6.2241, 6.2241
"SMAStrip (Nitinol)".19, 6.19352, 6.19352, 6.19352, 6.19352, 6.19352
"SMAStrip (Nitinol)".20, 6.16251, 6.16251, 6.16251, 6.16251, 6.16251
** ... 1147 like lines cut
** ----------------------------------------------------------------
** 
** STEP: Heat_09
** 
*Step, name=Heat_09, nlgeom=YES, inc=200
*Coupled Temperature-displacement, creep=none, deltmx=5.
0.1, 20., 4e-05, 5.
** 
** BOUNDARY CONDITIONS
** 
** Name: FixEdge Type: Symmetry/Antisymmetry/Encastre
*Boundary
Fixed-Set, ENCASTRE
** 
** LOADS
** 
** Name: Load_09   Type: Surface heat flux Using Field: AnalyticalField-1
*Dflux
"SMAStrip (Nitinol)".1, SPOS, 292.747
"SMAStrip (Nitinol)".2, SPOS, 16.5576
"SMAStrip (Nitinol)".6, SPOS, 264.176
"SMAStrip (Nitinol)".7, SPOS, 159.544
"SMAStrip (Nitinol)".8, SPOS, 99.8985
"SMAStrip (Nitinol)".15, SPOS, -298.294
"SMAStrip (Nitinol)".16, SPOS, -329.448
"SMAStrip (Nitinol)".17, SPOS, -440.142
"SMAStrip (Nitinol)".18, SPOS, -452.514
"SMAStrip (Nitinol)".19, SPOS, -487.215
"SMAStrip (Nitinol)".20, SPOS, 52.6028
"SMAStrip (Nitinol)".21, SPOS, -354.617
"SMAStrip (Nitinol)".22, SPOS, 99.7119
"SMAStrip (Nitinol)".23, SPOS, 292.176
"SMAStrip (Nitinol)".24, SPOS, 291.493
"SMAStrip (Nitinol)".25, SPOS, 265.787
"SMAStrip (Nitinol)".26, SPOS, 263.459
"SMAStrip (Nitinol)".27, SPOS, 254.712
"SMAStrip (Nitinol)".28, SPOS, 246.255
"SMAStrip (Nitinol)".29, SPOS, 298.793
** ... 735 like lines cut
** 
** INTERACTIONS
** 
** Interaction: ToVacuum
*Sradiate, amplitude=InstantVacuum
All-Surfaces, R, 4., 1.
** 
** OUTPUT REQUESTS
** 
*Restart, write, frequency=0
** 
** FIELD OUTPUT: F-Output-HFL
** 
*Output, field
*Element Output, directions=YES
HFL, 
** 
** FIELD OUTPUT: F-Output-1
** 
*Output, field, variable=PRESELECT
** 
** HISTORY OUTPUT: H-Output-1
** 
*Output, history, variable=PRESELECT
*End Step
