*Heading
 Iteration 9
** Job name: SMAHeatTransient_09 Model name: Model_09
** Generated by: Abaqus/CAE 2025
*Preprint, echo=NO, model=NO, history=NO, contact=NO
**
** PARTS
**
*Part, name="SMAStrip (Nitinol)"
*Node
      1,           0., 0.0800067261,           0.
      2,           0., 0.0700044855,           0.
      3,           0., 0.0600022413,           0.
      4,           0., 0.0500000007,           0.
      5,           0., 0.0399977602,           0.
      6,           0., 0.0299955178,           0.
      7,           0., 0.0199932773,           0.
      8,           0., 0.0900089666,           0.
      9,           0., 0.0099910358,           0.
     10, 0.00156007626, 0.000835799205, 0.0113951713
     11, 0.0105940402, -0.000336654106, 0.00539562805
     12, 0.0205290988, -0.000465455494, 0.00414589746
     13, 0.0304246321, -0.000283612811, 0.00303887296
     14, 0.0402760543, -0.000173137523, 0.00177613494
     15, 0.0500957072, -0.000150959531, 0.000244869501
     16, 0.0598739274, -0.000146170234, -0.00158246804
     17, 0.0695999339, -0.000140212607, -0.00372043066
     18, 0.0792699903, -0.000125299441, -0.00613184413
     19, 0.0888861716, -9.93182985e-05, -0.0087622609
     20, 0.0984518602, -5.94267149e-05, -0.0115725724
** ... 1548 like lines cut
*Element, type=S3T
 1,  657,  673,  658
 2,  492,  490,  491
 3, 1544,  908,  906
 4,  891,  889,  863
 5,  350,  284,  287
 6,  997, 1155, 1168
 7, 1083, 1065, 1066
 8, 1120, 1121, 1161
 9,  981,  979,  982
10,  250,  253,  320
11,  355,  290,  371
12,  365,  353,  354
13,  348,  347,  349
14,  344,  357,  356
15,  438,  383,  847
16,  706,  707,  705
17,  509,  533,  505
18,  486,  515,  483
19,  502,  527,  498
20,  505,  532,  506
** ... 38 like lines cut
*Element, type=S4RT
  59,  684,  685, 1506,  688
  60,    1,    2,  589,  584
  61,  775,  770,  773,  774
  62,   14,  771,  772,   13
  63,  772,  769,  770,  775
  64, 1448,  769,  768,  686
  65,  687, 1448,  686,  678
  66,  770,  769, 1448,  689
  67,  649,  678,  677, 1567
  68,  662,  661,  663,  679
  69,  579,  663,  576,  574
  70,  577,  579,  574, 1502
  71,  577,  578,  580,  579
  72,  567,  197,  198,  566
  73,  582,  581,  199,  200
  74,    2,    3,  592,  589
  75, 1507,  691, 1492,  685
  76,  688, 1506,  693,  690
  77,   12,  775,  776,   11
  78,    4,    5,  694, 1492
** ... 1407 like lines cut
*Nset, nset=Set-1, generate
    1,  1568,     1
*Elset, elset=Set-1, generate
    1,  1485,     1
** Section: CompositeSection-1
*Shell Section, elset=Set-1, composite
0.0025, 3, Aluminum, 0., a
0.0025, 3, FakeSMA, 0., b
*End Part
**  
**
** ASSEMBLY
**
*Assembly, name=Assembly
**  
*Instance, name="SMAStrip (Nitinol)", part="SMAStrip (Nitinol)"
*End Instance
**  
*Nset, nset=Fixed-Set, instance="SMAStrip (Nitinol)"
   1,   2,   3,   4,   5,   6,   7,   8,   9,  10, 201
*Elset, elset=Fixed-Set, instance="SMAStrip (Nitinol)"
   60,   74,   78,   79,   81,   86,   87,  622,  949, 1069
*Nset, nset=Set-Temp, instance="SMAStrip (Nitinol)", generate
    1,  1568,     1
*Elset, elset=Set-Temp, instance="SMAStrip (Nitinol)", generate
    1,  1485,     1
*Elset, elset=_All-Surfaces_SPOS, internal, instance="SMAStrip (Nitinol)", generate
    1,  1485,     1
*Surface, type=ELEMENT, name=All-Surfaces
_All-Surfaces_SPOS, SPOS
*End Assembly
*Amplitude, name=InstantVacuum
             0.,              1.,              4.,              1.
** 
** MATERIALS
** 
*Material, name=Aluminum
*Conductivity
100.,
*Density
2300.,
*Elastic
 7e+10, 0.3
*Expansion
0.,
*Specific Heat
900.,
*Material, name=FakeSMA
*Conductivity
50.,
*Density
6450.,
*Elastic
 9e+10, 0.3
*Expansion
 0.0025,
*Specific Heat
800.,
** 
** PHYSICAL CONSTANTS
** 
*Physical Constants, absolute zero=0., stefan boltzmann=5.67e-08
** 
** PREDEFINED FIELDS
** 
** Name: Temp0   Type: Temperature Using Field: TempField_Initial
*Initial Conditions, type=TEMPERATURE
"SMAStrip (Nitinol)".1, 6.50386, 6.50386, 6.50386, 6.50386, 6.50386
"SMAStrip (Nitinol)".2, 6.5028, 6.5028, 6.5028, 6.5028, 6.5028
"SMAStrip (Nitinol)".3, 6.49802, 6.49802, 6.49802, 6.49802, 6.49802
"SMAStrip (Nitinol)".4, 6.49015, 6.49015, 6.49015, 6.49015, 6.49015
"SMAStrip (Nitinol)".5, 6.48058, 6.48058, 6.48058, 6.48058, 6.48058
"SMAStrip (Nitinol)".6, 6.46963, 6.46963, 6.46963, 6.46963, 6.46963
"SMAStrip (Nitinol)".7, 6.45521, 6.45521, 6.45521, 6.45521, 6.45521
"SMAStrip (Nitinol)".8, 6.50275, 6.50275, 6.50275, 6.50275, 6.50275
"SMAStrip (Nitinol)".9, 6.43839, 6.43839, 6.43839, 6.43839, 6.43839
"SMAStrip (Nitinol)".10, 6.42629, 6.42629, 6.42629, 6.42629, 6.42629
"SMAStrip (Nitinol)".11, 6.43313, 6.43313, 6.43313, 6.43313, 6.43313
"SMAStrip (Nitinol)".12, 6.44257, 6.44257, 6.44257, 6.44257, 6.44257
"SMAStrip (Nitinol)".13, 6.43851, 6.43851, 6.43851, 6.43851, 6.43851
"SMAStrip (Nitinol)".14, 6.41732, 6.41732, 6.41732, 6.41732, 6.41732
"SMAStrip (Nitinol)".15, 6.38306, 6.38306, 6.38306, 6.38306, 6.38306
"SMAStrip (Nitinol)".16, 6.34554, 6.34554, 6.34554, 6.34554, 6.34554
"SMAStrip (Nitinol)".17, 6.30869, 6.30869, 6.30869, 6.30869, 6.30869
"SMAStrip (Nitinol)".18, 6.27355, 6.27355, 6.27355, 6.27355, 6.27355
"SMAStrip (Nitinol)".19, 6.23967, 6.23967, 6.23967, 6.23967, 6.23967
"SMAStrip (Nitinol)".20, 6.20635, 6.20635, 6.20635, 6.20635, 6.20635
** ... 1548 like lines cut
** ----------------------------------------------------------------
** 
** STEP: Heat_09
** 
*Step, name=Heat_09, nlgeom=YES, inc=200
*Coupled Temperature-displacement, creep=none, deltmx=5.
0.1, 20., 4e-05, 5.
** 
** BOUNDARY CONDITIONS
** 
** Name: FixEdge Type: Symmetry/Antisymmetry/Encastre
*Boundary
Fixed-Set, ENCASTRE
** 
** LOADS
** 
** Name: Load_09   Type: Surface heat flux Using Field: Flux_Field_9
*Dflux
"SMAStrip (Nitinol)".1, SPOS, 340.19
"SMAStrip (Nitinol)".2, SPOS, 80.3453
"SMAStrip (Nitinol)".7, SPOS, -370.639
"SMAStrip (Nitinol)".9, SPOS, -347.685
"SMAStrip (Nitinol)".16, SPOS, 134.446
"SMAStrip (Nitinol)".17, SPOS, 32.1314
"SMAStrip (Nitinol)".18, SPOS, 62.8203
"SMAStrip (Nitinol)".19, SPOS, 10.0494
"SMAStrip (Nitinol)".20, SPOS, 23.9565
"SMAStrip (Nitinol)".21, SPOS, 20.8587
"SMAStrip (Nitinol)".22, SPOS, 206.172
"SMAStrip (Nitinol)".23, SPOS, 285.475
"SMAStrip (Nitinol)".24, SPOS, 430.057
"SMAStrip (Nitinol)".25, SPOS, 166.232
"SMAStrip (Nitinol)".26, SPOS, 198.151
"SMAStrip (Nitinol)".27, SPOS, 207.762
"SMAStrip (Nitinol)".28, SPOS, 192.905
"SMAStrip (Nitinol)".29, SPOS, 232.668
"SMAStrip (Nitinol)".30, SPOS, 219.084
"SMAStrip (Nitinol)".31, SPOS, 457.908
** ... 1003 like lines cut
** 
** INTERACTIONS
** 
** Interaction: ToVacuum
*Sradiate, amplitude=InstantVacuum
All-Surfaces, R, 4., 0.75
** 
** OUTPUT REQUESTS
** 
*Restart, write, frequency=0
** 
** FIELD OUTPUT: F-Output-HFL
** 
*Output, field
*Element Output, directions=YES
HFL, 
** 
** FIELD OUTPUT: F-Output-1
** 
*Output, field, variable=PRESELECT
** 
** HISTORY OUTPUT: H-Output-1
** 
*Output, history, variable=PRESELECT
*End Step
