*Heading
 Iteration 9
** Job name: SMAHeatTransient_09 Model name: Model_09
** Generated by: Abaqus/CAE 2025
*Preprint, echo=NO, model=NO, history=NO, contact=NO
**
** PARTS
**
*Part, name="SMAStrip (Nitinol)"
*Node
      1, 0.0117247859, -0.000109538443, 0.0133641111
      2, 0.0214086045, -0.000165935067, 0.0108975004
      3, 0.0310814735, -0.000206521552, 0.00835081469
      4, 0.0407282077, -0.000234520441, 0.00572804874
      5, 0.0503543653, -0.000250085286, 0.00302775973
      6, 0.0695380494, -0.000252496131, -0.00260331249
      7, 0.0790931284, -0.000243286704, -0.00553326774
      8, 0.0886229351, -0.000229398982, -0.00853918493
      9,  0.107605092, -0.000194268068, -0.0147781735
     10,  0.117056333, -0.000176482674, -0.0180107784
     11,  0.135878891, -0.000148898136, -0.0247019399
     12,  0.145248428, -0.000140461532, -0.0281598307
     13,  0.154589176, -0.000135185532, -0.0316922255
     14,  0.173182636, -0.000132516958, -0.038979806
     15,  0.182434469, -0.000134313683, -0.0427346379
     16,  0.191655666, -0.000137654744, -0.0465632044
     17,  0.210003942, -0.000147351617, -0.0544405989
     18,   0.21912995, -0.000152901528, -0.0584889576
     19,   0.22822319, -0.000158381299, -0.0626101196
     20,  0.237283111, -0.000163387173, -0.0668038502
** ... 1220 like lines cut
*Element, type=S3T
 1,  354,  343,  344
 2, 1215,  439,  448
 3, 1228,  622,  621
 4, 1222,  744,  752
 5, 1152,  887,  886
 6, 1115,  981,  987
 7,  213,  212, 1199
 8,  553,  559,  560
 9, 1240,  648,  647
10,  756,  757,  749
11,  843,  842,  851
12, 1209,  859,  858
13, 1097,  992,  991
14, 1162, 1139, 1095
15, 1165, 1147,  210
16, 1162, 1058, 1139
17, 1165, 1148, 1147
*Element, type=S4RT
  18,  218, 1124, 1123,    2
  19, 1123, 1113,    1,    2
  20,    2,    3,  226,  218
  21,  227,  226,  208,  239
  22,  242,  238,  239,  241
  23,  251,  243,  242,  250
  24,  259,  252,  251, 1177
  25,  259, 1200,  260,  253
  26,  266, 1190, 1181,  278
  27,  279,  278,  287,  288
  28,  289,  288,  297,  206
  29,  206,  179, 1019,  289
  30,  180,  280,  289, 1019
  31,  280,  180,  181,  264
  32,  265,  264,  263,  262
  33,  261,  262, 1135,  254
  34,  254,  245,  244,  253
  35,  244,  245,  235,  236
  36,  229,  237,  236,  230
  37,  228,  229,  221,  220
** ... 1098 like lines cut
*Nset, nset=Set-1, generate
    1,  1240,     1
*Elset, elset=Set-1, generate
    1,  1135,     1
** Section: CompositeSection-1
*Shell Section, elset=Set-1, composite
0.0025, 3, Aluminum, 0., a
0.0025, 3, FakeSMA, 0., b
*End Part
**  
**
** ASSEMBLY
**
*Assembly, name=Assembly
**  
*Instance, name="SMAStrip (Nitinol)", part="SMAStrip (Nitinol)"
*End Instance
**  
*Nset, nset=Fixed-Set, instance="SMAStrip (Nitinol)"
  89, 189, 190, 191, 192, 193, 194, 195, 196
*Elset, elset=Fixed-Set, instance="SMAStrip (Nitinol)"
  719, 1064, 1065, 1067, 1075, 1093, 1094, 1096
*Nset, nset=Set-Temp, instance="SMAStrip (Nitinol)", generate
    1,  1240,     1
*Elset, elset=Set-Temp, instance="SMAStrip (Nitinol)", generate
    1,  1135,     1
*Elset, elset=_All-Surfaces_SPOS, internal, instance="SMAStrip (Nitinol)", generate
    1,  1135,     1
*Surface, type=ELEMENT, name=All-Surfaces
_All-Surfaces_SPOS, SPOS
*End Assembly
*Amplitude, name=InstantVacuum
             0.,              1.,              4.,              1.
** 
** MATERIALS
** 
*Material, name=Aluminum
*Conductivity
100.,
*Density
2300.,
*Elastic
 7e+10, 0.3
*Expansion
0.,
*Specific Heat
900.,
*Material, name=FakeSMA
*Conductivity
50.,
*Density
6450.,
*Elastic
 9e+10, 0.3
*Expansion
 0.0025,
*Specific Heat
800.,
** 
** PHYSICAL CONSTANTS
** 
*Physical Constants, absolute zero=0., stefan boltzmann=5.67e-08
** 
** PREDEFINED FIELDS
** 
** Name: Temp0   Type: Temperature Using Field: TempField_Initial
*Initial Conditions, type=TEMPERATURE
"SMAStrip (Nitinol)".1, 6.38764, 6.38764, 6.38764, 6.38764, 6.38764
"SMAStrip (Nitinol)".2, 6.37522, 6.37522, 6.37522, 6.37522, 6.37522
"SMAStrip (Nitinol)".3, 6.35755, 6.35755, 6.35755, 6.35755, 6.35755
"SMAStrip (Nitinol)".4, 6.33662, 6.33662, 6.33662, 6.33662, 6.33662
"SMAStrip (Nitinol)".5, 6.31307, 6.31307, 6.31307, 6.31307, 6.31307
"SMAStrip (Nitinol)".6, 6.26062, 6.26062, 6.26062, 6.26062, 6.26062
"SMAStrip (Nitinol)".7, 6.23258, 6.23258, 6.23258, 6.23258, 6.23258
"SMAStrip (Nitinol)".8, 6.20377, 6.20377, 6.20377, 6.20377, 6.20377
"SMAStrip (Nitinol)".9, 6.14479, 6.14479, 6.14479, 6.14479, 6.14479
"SMAStrip (Nitinol)".10, 6.11475, 6.11475, 6.11475, 6.11475, 6.11475
"SMAStrip (Nitinol)".11, 6.05405, 6.05405, 6.05405, 6.05405, 6.05405
"SMAStrip (Nitinol)".12, 6.02351, 6.02351, 6.02351, 6.02351, 6.02351
"SMAStrip (Nitinol)".13, 5.99287, 5.99287, 5.99287, 5.99287, 5.99287
"SMAStrip (Nitinol)".14, 5.93136, 5.93136, 5.93136, 5.93136, 5.93136
"SMAStrip (Nitinol)".15, 5.90051, 5.90051, 5.90051, 5.90051, 5.90051
"SMAStrip (Nitinol)".16, 5.8696, 5.8696, 5.8696, 5.8696, 5.8696
"SMAStrip (Nitinol)".17, 5.80761, 5.80761, 5.80761, 5.80761, 5.80761
"SMAStrip (Nitinol)".18, 5.77649, 5.77649, 5.77649, 5.77649, 5.77649
"SMAStrip (Nitinol)".19, 5.74528, 5.74528, 5.74528, 5.74528, 5.74528
"SMAStrip (Nitinol)".20, 5.71413, 5.71413, 5.71413, 5.71413, 5.71413
** ... 1220 like lines cut
** ----------------------------------------------------------------
** 
** STEP: Heat_09
** 
*Step, name=Heat_09, nlgeom=NO, inc=200
*Coupled Temperature-displacement, creep=none, deltmx=5.
0.1, 20., 4e-05, 5.
** 
** BOUNDARY CONDITIONS
** 
** Name: FixEdge Type: Symmetry/Antisymmetry/Encastre
*Boundary
Fixed-Set, ENCASTRE
** 
** LOADS
** 
** Name: Load_09   Type: Surface heat flux Using Field: AnalyticalField-1
*Dflux
"SMAStrip (Nitinol)".1, SPOS, 143.642
"SMAStrip (Nitinol)".2, SPOS, 35.429
"SMAStrip (Nitinol)".5, SPOS, -426.927
"SMAStrip (Nitinol)".6, SPOS, -518.945
"SMAStrip (Nitinol)".7, SPOS, 276.044
"SMAStrip (Nitinol)".11, SPOS, -374.44
"SMAStrip (Nitinol)".12, SPOS, -391.116
"SMAStrip (Nitinol)".13, SPOS, -522.656
"SMAStrip (Nitinol)".14, SPOS, 281.374
"SMAStrip (Nitinol)".15, SPOS, 275.452
"SMAStrip (Nitinol)".16, SPOS, 282.148
"SMAStrip (Nitinol)".17, SPOS, 276.685
"SMAStrip (Nitinol)".18, SPOS, 270.928
"SMAStrip (Nitinol)".19, SPOS, 273.867
"SMAStrip (Nitinol)".20, SPOS, 267.265
"SMAStrip (Nitinol)".21, SPOS, 259.632
"SMAStrip (Nitinol)".22, SPOS, 252.692
"SMAStrip (Nitinol)".23, SPOS, 245.178
"SMAStrip (Nitinol)".24, SPOS, 237.719
"SMAStrip (Nitinol)".25, SPOS, 231.525
** ... 762 like lines cut
** 
** INTERACTIONS
** 
** Interaction: ToVacuum
*Sradiate, amplitude=InstantVacuum
All-Surfaces, R, 4., 1.
** 
** OUTPUT REQUESTS
** 
*Restart, write, frequency=0
** 
** FIELD OUTPUT: F-Output-HFL
** 
*Output, field
*Element Output, directions=YES
HFL, 
** 
** FIELD OUTPUT: F-Output-1
** 
*Output, field, variable=PRESELECT
** 
** HISTORY OUTPUT: H-Output-1
** 
*Output, history, variable=PRESELECT
*End Step
