*Heading
 Iteration 4
** Job name: SMAHeatTransient_04 Model name: Model_04
** Generated by: Abaqus/CAE 2025
*Preprint, echo=NO, model=NO, history=NO, contact=NO
**
** PARTS
**
*Part, name="SMAStrip (Nitinol)"
*Node
      1, 0.000176574584,  0.100013137, 0.00348299858
      2,           0., 0.0900089666,           0.
      3,           0., 0.0800067261,           0.
      4,           0., 0.0700044855,           0.
      5,           0., 0.0600022413,           0.
      6,           0., 0.0500000007,           0.
      7,           0., 0.0399977602,           0.
      8,           0., 0.0299955178,           0.
      9,           0., 0.0199932773,           0.
     10,           0., 0.0099910358,           0.
     11, 0.000141546203, -9.96606468e-06, 0.00354015687
     12, 0.0100591388,  0.100039795, 0.0029507291
     13, 0.0100726113, 0.0900318176, 0.0029554083
     14, 0.0100860894, 0.0800238401, 0.00296008703
     15, 0.0100995712, 0.0700158626, 0.00296476483
     16, 0.0101130577, 0.0600078851, 0.0029694417
     17, 0.0101265507, 0.0499999076, 0.00297411787
     18, 0.0101400465, 0.0399919301, 0.00297879335
     19, 0.0101535479, 0.0299839526, 0.00298346789
     20, 0.0101670539,  0.019975977, 0.00298814196
** ... 1091 like lines cut
*Element, type=S4RT
   1,    1,    2,   13,   12
   2,    2,    3,   14,   13
   3,    3,    4,   15,   14
   4,    4,    5,   16,   15
   5,    5,    6,   17,   16
   6,    6,    7,   18,   17
   7,    7,    8,   19,   18
   8,    8,    9,   20,   19
   9,    9,   10,   21,   20
  10,   10,   11,   22,   21
  11,   12,   13,   24,   23
  12,   13,   14,   25,   24
  13,   14,   15,   26,   25
  14,   15,   16,   27,   26
  15,   16,   17,   28,   27
  16,   17,   18,   29,   28
  17,   18,   19,   30,   29
  18,   19,   20,   31,   30
  19,   20,   21,   32,   31
  20,   21,   22,   33,   32
** ... 980 like lines cut
*Nset, nset=Set-1, generate
    1,  1111,     1
*Elset, elset=Set-1, generate
    1,  1000,     1
** Section: CompositeSection-1
*Shell Section, elset=Set-1, composite
0.0025, 3, Aluminum, 0., a
0.0025, 3, FakeSMA, 0., b
*End Part
**  
**
** ASSEMBLY
**
*Assembly, name=Assembly
**  
*Instance, name="SMAStrip (Nitinol)", part="SMAStrip (Nitinol)"
*End Instance
**  
*Nset, nset=Fixed-Set, instance="SMAStrip (Nitinol)", generate
  1,  11,   1
*Elset, elset=Fixed-Set, instance="SMAStrip (Nitinol)", generate
  1,  10,   1
*Nset, nset=Set-Temp, instance="SMAStrip (Nitinol)", generate
    1,  1111,     1
*Elset, elset=Set-Temp, instance="SMAStrip (Nitinol)", generate
    1,  1000,     1
*Elset, elset=_All-Surfaces_SPOS, internal, instance="SMAStrip (Nitinol)", generate
    1,  1000,     1
*Surface, type=ELEMENT, name=All-Surfaces
_All-Surfaces_SPOS, SPOS
*End Assembly
*Amplitude, name=InstantVacuum
             0.,              1.,              4.,              1.
** 
** MATERIALS
** 
*Material, name=Aluminum
*Conductivity
100.,
*Density
2300.,
*Elastic
 7e+10, 0.3
*Expansion
0.,
*Specific Heat
900.,
*Material, name=FakeSMA
*Conductivity
50.,
*Density
6450.,
*Elastic
 9e+10, 0.3
*Expansion
 0.0025,
*Specific Heat
800.,
** 
** PHYSICAL CONSTANTS
** 
*Physical Constants, absolute zero=0., stefan boltzmann=5.67e-08
** 
** PREDEFINED FIELDS
** 
** Name: Temp0   Type: Temperature Using Field: TempField_Initial
*Initial Conditions, type=TEMPERATURE
"SMAStrip (Nitinol)".1, 5.07382, 5.07382, 5.07382, 5.07382, 5.07382
"SMAStrip (Nitinol)".2, 5.07383, 5.07383, 5.07383, 5.07383, 5.07383
"SMAStrip (Nitinol)".3, 5.07384, 5.07384, 5.07384, 5.07384, 5.07384
"SMAStrip (Nitinol)".4, 5.07385, 5.07385, 5.07385, 5.07385, 5.07385
"SMAStrip (Nitinol)".5, 5.07385, 5.07385, 5.07385, 5.07385, 5.07385
"SMAStrip (Nitinol)".6, 5.07385, 5.07385, 5.07385, 5.07385, 5.07385
"SMAStrip (Nitinol)".7, 5.07385, 5.07385, 5.07385, 5.07385, 5.07385
"SMAStrip (Nitinol)".8, 5.07384, 5.07384, 5.07384, 5.07384, 5.07384
"SMAStrip (Nitinol)".9, 5.07384, 5.07384, 5.07384, 5.07384, 5.07384
"SMAStrip (Nitinol)".10, 5.07382, 5.07382, 5.07382, 5.07382, 5.07382
"SMAStrip (Nitinol)".11, 5.07378, 5.07378, 5.07378, 5.07378, 5.07378
"SMAStrip (Nitinol)".12, 5.07277, 5.07277, 5.07277, 5.07277, 5.07277
"SMAStrip (Nitinol)".13, 5.07273, 5.07273, 5.07273, 5.07273, 5.07273
"SMAStrip (Nitinol)".14, 5.07271, 5.07271, 5.07271, 5.07271, 5.07271
"SMAStrip (Nitinol)".15, 5.07271, 5.07271, 5.07271, 5.07271, 5.07271
"SMAStrip (Nitinol)".16, 5.07271, 5.07271, 5.07271, 5.07271, 5.07271
"SMAStrip (Nitinol)".17, 5.0727, 5.0727, 5.0727, 5.0727, 5.0727
"SMAStrip (Nitinol)".18, 5.0727, 5.0727, 5.0727, 5.0727, 5.0727
"SMAStrip (Nitinol)".19, 5.07269, 5.07269, 5.07269, 5.07269, 5.07269
"SMAStrip (Nitinol)".20, 5.07268, 5.07268, 5.07268, 5.07268, 5.07268
** ... 1091 like lines cut
** ----------------------------------------------------------------
** 
** STEP: Heat_04
** 
*Step, name=Heat_04, nlgeom=YES, inc=200
*Coupled Temperature-displacement, creep=none, deltmx=5.
0.1, 20., 4e-05, 5.
** 
** BOUNDARY CONDITIONS
** 
** Name: FixEdge Type: Symmetry/Antisymmetry/Encastre
*Boundary
Fixed-Set, ENCASTRE
** 
** LOADS
** 
** Name: Load_04   Type: Surface heat flux Using Field: Flux_Field_4
*Dflux
"SMAStrip (Nitinol)".1, SPOS, 462.08
"SMAStrip (Nitinol)".2, SPOS, 462.22
"SMAStrip (Nitinol)".3, SPOS, 462.42
"SMAStrip (Nitinol)".4, SPOS, 462.284
"SMAStrip (Nitinol)".5, SPOS, 462.291
"SMAStrip (Nitinol)".6, SPOS, 462.143
"SMAStrip (Nitinol)".7, SPOS, 462.372
"SMAStrip (Nitinol)".8, SPOS, 462.36
"SMAStrip (Nitinol)".9, SPOS, 462.281
"SMAStrip (Nitinol)".10, SPOS, 462.018
"SMAStrip (Nitinol)".11, SPOS, 456.303
"SMAStrip (Nitinol)".12, SPOS, 456.286
"SMAStrip (Nitinol)".13, SPOS, 456.269
"SMAStrip (Nitinol)".14, SPOS, 456.252
"SMAStrip (Nitinol)".15, SPOS, 456.235
"SMAStrip (Nitinol)".16, SPOS, 456.219
"SMAStrip (Nitinol)".17, SPOS, 456.202
"SMAStrip (Nitinol)".18, SPOS, 456.185
"SMAStrip (Nitinol)".19, SPOS, 456.167
"SMAStrip (Nitinol)".20, SPOS, 456.164
** ... 739 like lines cut
** 
** INTERACTIONS
** 
** Interaction: ToVacuum
*Sradiate, amplitude=InstantVacuum
All-Surfaces, R, 4., 0.75
** 
** OUTPUT REQUESTS
** 
*Restart, write, frequency=0
** 
** FIELD OUTPUT: F-Output-HFL
** 
*Output, field
*Element Output, directions=YES
HFL, 
** 
** FIELD OUTPUT: F-Output-1
** 
*Output, field, variable=PRESELECT
** 
** HISTORY OUTPUT: H-Output-1
** 
*Output, history, variable=PRESELECT
*End Step
