*Heading
 Iteration 12
** Job name: SMAHeatTransient_12 Model name: Model_12
** Generated by: Abaqus/CAE 2025
*Preprint, echo=NO, model=NO, history=NO, contact=NO
**
** PARTS
**
*Part, name="SMAStrip (Nitinol)"
*Node
      1,           0., 0.0800071582,           0.
      2,           0., 0.0700062588,           0.
      3,           0., 0.0600053668,           0.
      4,           0., 0.0500044711,           0.
      5,           0., 0.0400035791,           0.
      6,           0., 0.0300026834,           0.
      7,           0., 0.0200017877,           0.
      8,           0., 0.0900080502,           0.
      9,           0., 0.0100008938,           0.
     10, 0.000781078474, 0.00493925158, 0.00674389442
     11, 0.00156440435, -0.000100855672,  0.013503585
     12, 0.0116068022, -0.000157345596,  0.012502471
     13, 0.0212956201, -0.000190722654, 0.0100467354
     14, 0.0309628397, -0.000213881605, 0.00751264626
     15, 0.0406078771, -0.000228028366, 0.00490040099
     16, 0.0598290898, -0.000234109204, -0.000557757332
     17, 0.0694041252, -0.000228455276, -0.00340326573
     18, 0.0789546967, -0.000218613146, -0.00632612081
     19, 0.0979802161, -0.000191188563, -0.0124030448
     20,  0.107454076, -0.000176018322, -0.0155566987
** ... 1214 like lines cut
*Element, type=S3T
 1,  262,  252,  261
 2,  539,  529,  538
 3,  645,  636,  644
 4,  724,  731,  732
 5,  772,  779,  780
 6,  930,  921,  929
 7, 1230,  851, 1221
 8, 1147,  218,  219
 9,  287,  294,  295
10,  277,  294,  286
11,  358,  348,  357
12, 1218,  411,  412
13,  475, 1205,  484
14, 1206,  493,  492
15,  509,  508,  517
16, 1189,  531, 1172
17,  602,  593,  592
18, 1197,  619,  628
19,  654,  645,  653
20,  723,  730,  722
** ... 8 like lines cut
*Element, type=S4RT
  29,    3,    4, 1113, 1136
  30, 1092, 1088,    4,    5
  31,    4, 1088, 1134, 1113
  32, 1150, 1135, 1139,  218
  33,  226,  227, 1139,  217
  34,  235, 1159,  227,  226
  35,  243,  244, 1159,  235
  36, 1165,  253,  244,  243
  37,  271, 1174,  270,  279
  38,  280,  271,  279,  288
  39,  289,  280,  288,  296
  40,  297,  289,  296, 1202
  41,  306,  297, 1202,  305
  42,  305,  314,  315,  306
  43,  314, 1203,  324,  315
  44,  332,  333, 1175,  323
  45,  342,  333,  332,  341
  46,  341,  350,  351,  342
  47,  350,  359,  360,  351
  48,  359,  368,  369,  360
** ... 1087 like lines cut
*Nset, nset=Set-1, generate
    1,  1234,     1
*Elset, elset=Set-1, generate
    1,  1135,     1
** Section: CompositeSection-1
*Shell Section, elset=Set-1, composite
0.0025, 3, Aluminum, 0., a
0.0025, 3, FakeSMA, 0., b
*End Part
**  
**
** ASSEMBLY
**
*Assembly, name=Assembly
**  
*Instance, name="SMAStrip (Nitinol)", part="SMAStrip (Nitinol)"
*End Instance
**  
*Nset, nset=Fixed-Set, instance="SMAStrip (Nitinol)", generate
 1,  9,  1
*Elset, elset=Fixed-Set, instance="SMAStrip (Nitinol)"
   29,   30,  209,  490,  699,  702, 1097, 1102
*Nset, nset=Set-Temp, instance="SMAStrip (Nitinol)", generate
    1,  1234,     1
*Elset, elset=Set-Temp, instance="SMAStrip (Nitinol)", generate
    1,  1135,     1
*Elset, elset=_All-Surfaces_SPOS, internal, instance="SMAStrip (Nitinol)", generate
    1,  1135,     1
*Surface, type=ELEMENT, name=All-Surfaces
_All-Surfaces_SPOS, SPOS
*End Assembly
*Amplitude, name=InstantVacuum
             0.,              1.,              4.,              1.
** 
** MATERIALS
** 
*Material, name=Aluminum
*Conductivity
100.,
*Density
2300.,
*Elastic
 7e+10, 0.3
*Expansion
0.,
*Specific Heat
900.,
*Material, name=FakeSMA
*Conductivity
50.,
*Density
6450.,
*Elastic
 9e+10, 0.3
*Expansion
 0.0025,
*Specific Heat
800.,
** 
** PHYSICAL CONSTANTS
** 
*Physical Constants, absolute zero=0., stefan boltzmann=5.67e-08
** 
** PREDEFINED FIELDS
** 
** Name: Temp0   Type: Temperature Using Field: TempField_Initial
*Initial Conditions, type=TEMPERATURE
"SMAStrip (Nitinol)".1, 6.35795, 6.35795, 6.35795, 6.35795, 6.35795
"SMAStrip (Nitinol)".2, 6.36576, 6.36576, 6.36576, 6.36576, 6.36576
"SMAStrip (Nitinol)".3, 6.37486, 6.37486, 6.37486, 6.37486, 6.37486
"SMAStrip (Nitinol)".4, 6.38404, 6.38404, 6.38404, 6.38404, 6.38404
"SMAStrip (Nitinol)".5, 6.39235, 6.39235, 6.39235, 6.39235, 6.39235
"SMAStrip (Nitinol)".6, 6.39896, 6.39896, 6.39896, 6.39896, 6.39896
"SMAStrip (Nitinol)".7, 6.40335, 6.40335, 6.40335, 6.40335, 6.40335
"SMAStrip (Nitinol)".8, 6.35276, 6.35276, 6.35276, 6.35276, 6.35276
"SMAStrip (Nitinol)".9, 6.40536, 6.40536, 6.40536, 6.40536, 6.40536
"SMAStrip (Nitinol)".10, 6.40325, 6.40325, 6.40325, 6.40325, 6.40325
"SMAStrip (Nitinol)".11, 6.40251, 6.40251, 6.40251, 6.40251, 6.40251
"SMAStrip (Nitinol)".12, 6.39859, 6.39859, 6.39859, 6.39859, 6.39859
"SMAStrip (Nitinol)".13, 6.38553, 6.38553, 6.38553, 6.38553, 6.38553
"SMAStrip (Nitinol)".14, 6.36782, 6.36782, 6.36782, 6.36782, 6.36782
"SMAStrip (Nitinol)".15, 6.34674, 6.34674, 6.34674, 6.34674, 6.34674
"SMAStrip (Nitinol)".16, 6.29662, 6.29662, 6.29662, 6.29662, 6.29662
"SMAStrip (Nitinol)".17, 6.26877, 6.26877, 6.26877, 6.26877, 6.26877
"SMAStrip (Nitinol)".18, 6.23967, 6.23967, 6.23967, 6.23967, 6.23967
"SMAStrip (Nitinol)".19, 6.17876, 6.17876, 6.17876, 6.17876, 6.17876
"SMAStrip (Nitinol)".20, 6.14741, 6.14741, 6.14741, 6.14741, 6.14741
** ... 1214 like lines cut
** ----------------------------------------------------------------
** 
** STEP: Heat_12
** 
*Step, name=Heat_12, nlgeom=NO, inc=200
*Coupled Temperature-displacement, creep=none, deltmx=5.
0.1, 15., 4e-05, 5.
** 
** BOUNDARY CONDITIONS
** 
** Name: FixEdge Type: Symmetry/Antisymmetry/Encastre
*Boundary
Fixed-Set, ENCASTRE
** 
** LOADS
** 
** Name: Load_12   Type: Surface heat flux Using Field: AnalyticalField-1
*Dflux
"SMAStrip (Nitinol)".1, SPOS, 230.901
"SMAStrip (Nitinol)".5, SPOS, -291.008
"SMAStrip (Nitinol)".6, SPOS, -429.936
"SMAStrip (Nitinol)".7, SPOS, -368.776
"SMAStrip (Nitinol)".8, SPOS, 272.315
"SMAStrip (Nitinol)".9, SPOS, 205.493
"SMAStrip (Nitinol)".10, SPOS, 209.994
"SMAStrip (Nitinol)".11, SPOS, 138.733
"SMAStrip (Nitinol)".12, SPOS, 84.5686
"SMAStrip (Nitinol)".13, SPOS, 16.7278
"SMAStrip (Nitinol)".14, SPOS, 11.8787
"SMAStrip (Nitinol)".16, SPOS, -19.8207
"SMAStrip (Nitinol)".21, SPOS, -416.955
"SMAStrip (Nitinol)".22, SPOS, 281.588
"SMAStrip (Nitinol)".24, SPOS, 278.66
"SMAStrip (Nitinol)".25, SPOS, 12.1357
"SMAStrip (Nitinol)".26, SPOS, -299.248
"SMAStrip (Nitinol)".27, SPOS, 236.6
"SMAStrip (Nitinol)".28, SPOS, -353.456
"SMAStrip (Nitinol)".29, SPOS, 290.552
** ... 795 like lines cut
** 
** INTERACTIONS
** 
** Interaction: ToVacuum
*Sradiate, amplitude=InstantVacuum
All-Surfaces, R, 4., 1.
** 
** OUTPUT REQUESTS
** 
*Restart, write, frequency=0
** 
** FIELD OUTPUT: F-Output-HFL
** 
*Output, field
*Element Output, directions=YES
HFL, 
** 
** FIELD OUTPUT: F-Output-1
** 
*Output, field, variable=PRESELECT
** 
** HISTORY OUTPUT: H-Output-1
** 
*Output, history, variable=PRESELECT
*End Step
