*Heading
 Iteration 3
** Job name: SMAHeatTransient_03 Model name: Model_03
** Generated by: Abaqus/CAE 2025
*Preprint, echo=NO, model=NO, history=NO, contact=NO
**
** PARTS
**
*Part, name="SMAStrip (Nitinol)"
*Node
      1,  0.955864251,  0.100021765, -0.260124058
      2,  0.946586609,  0.100023136, -0.256212026
      3,  0.937845707,  0.100024313, -0.251350284
      4,  0.929080129,  0.100025311, -0.246531293
      5,  0.920290172,  0.100026153, -0.241755277
      6,  0.911476135,  0.100026861, -0.237022355
      7,  0.902638316,  0.100027457, -0.232332706
      8,  0.893776894,  0.100027956, -0.227686465
      9,  0.884892225,  0.100028373, -0.223083794
     10,   0.87598449,  0.100028738, -0.218524829
     11,  0.867053986,  0.100029066, -0.214009672
     12,  0.858100891,  0.100029379,  -0.20953849
     13,  0.849125445,  0.100029692, -0.205111369
     14,  0.840127885,  0.100030027, -0.200728446
     15,   0.83110851,  0.100030392, -0.196389869
     16,  0.822067499,  0.100030787, -0.192095712
     17,   0.81300503,  0.100031197, -0.187846109
     18,  0.803921461,  0.100031629, -0.183641195
     19,  0.794816971,  0.100032076, -0.179481074
     20,  0.785691798,  0.100032523, -0.175365865
** ... 1091 like lines cut
*Element, type=S4RT
   1,    1,    2,  103,  102
   2,    2,    3,  104,  103
   3,    3,    4,  105,  104
   4,    4,    5,  106,  105
   5,    5,    6,  107,  106
   6,    6,    7,  108,  107
   7,    7,    8,  109,  108
   8,    8,    9,  110,  109
   9,    9,   10,  111,  110
  10,   10,   11,  112,  111
  11,   11,   12,  113,  112
  12,   12,   13,  114,  113
  13,   13,   14,  115,  114
  14,   14,   15,  116,  115
  15,   15,   16,  117,  116
  16,   16,   17,  118,  117
  17,   17,   18,  119,  118
  18,   18,   19,  120,  119
  19,   19,   20,  121,  120
  20,   20,   21,  122,  121
** ... 980 like lines cut
*Nset, nset=Set-1, generate
    1,  1111,     1
*Elset, elset=Set-1, generate
    1,  1000,     1
** Section: CompositeSection-1
*Shell Section, elset=Set-1, composite
0.0025, 3, Aluminum, 0., a
0.0025, 3, FakeSMA, 0., b
*End Part
**  
**
** ASSEMBLY
**
*Assembly, name=Assembly
**  
*Instance, name="SMAStrip (Nitinol)", part="SMAStrip (Nitinol)"
*End Instance
**  
*Nset, nset=Fixed-Set, instance="SMAStrip (Nitinol)", generate
  101,  1111,   101
*Elset, elset=Fixed-Set, instance="SMAStrip (Nitinol)", generate
  100,  1000,   100
*Nset, nset=Set-Temp, instance="SMAStrip (Nitinol)", generate
    1,  1111,     1
*Elset, elset=Set-Temp, instance="SMAStrip (Nitinol)", generate
    1,  1000,     1
*Elset, elset=_All-Surfaces_SPOS, internal, instance="SMAStrip (Nitinol)", generate
    1,  1000,     1
*Surface, type=ELEMENT, name=All-Surfaces
_All-Surfaces_SPOS, SPOS
*End Assembly
*Amplitude, name=InstantVacuum
             0.,              1.,              4.,              1.
** 
** MATERIALS
** 
*Material, name=Aluminum
*Conductivity
100.,
*Density
2300.,
*Elastic
 7e+10, 0.3
*Expansion
0.,
*Specific Heat
900.,
*Material, name=FakeSMA
*Conductivity
50.,
*Density
6450.,
*Elastic
 9e+10, 0.3
*Expansion
 0.0025,
*Specific Heat
800.,
** 
** PHYSICAL CONSTANTS
** 
*Physical Constants, absolute zero=0., stefan boltzmann=5.67e-08
** 
** PREDEFINED FIELDS
** 
** Name: Temp0   Type: Temperature Using Field: TempField_Initial
*Initial Conditions, type=TEMPERATURE
"SMAStrip (Nitinol)".1, 4.54113, 4.54113, 4.54113, 4.54113, 4.54113
"SMAStrip (Nitinol)".2, 4.54143, 4.54143, 4.54143, 4.54143, 4.54143
"SMAStrip (Nitinol)".3, 4.54229, 4.54229, 4.54229, 4.54229, 4.54229
"SMAStrip (Nitinol)".4, 4.54364, 4.54364, 4.54364, 4.54364, 4.54364
"SMAStrip (Nitinol)".5, 4.54532, 4.54532, 4.54532, 4.54532, 4.54532
"SMAStrip (Nitinol)".6, 4.5472, 4.5472, 4.5472, 4.5472, 4.5472
"SMAStrip (Nitinol)".7, 4.54917, 4.54917, 4.54917, 4.54917, 4.54917
"SMAStrip (Nitinol)".8, 4.55117, 4.55117, 4.55117, 4.55117, 4.55117
"SMAStrip (Nitinol)".9, 4.55318, 4.55318, 4.55318, 4.55318, 4.55318
"SMAStrip (Nitinol)".10, 4.55519, 4.55519, 4.55519, 4.55519, 4.55519
"SMAStrip (Nitinol)".11, 4.5572, 4.5572, 4.5572, 4.5572, 4.5572
"SMAStrip (Nitinol)".12, 4.55921, 4.55921, 4.55921, 4.55921, 4.55921
"SMAStrip (Nitinol)".13, 4.56121, 4.56121, 4.56121, 4.56121, 4.56121
"SMAStrip (Nitinol)".14, 4.56322, 4.56322, 4.56322, 4.56322, 4.56322
"SMAStrip (Nitinol)".15, 4.56522, 4.56522, 4.56522, 4.56522, 4.56522
"SMAStrip (Nitinol)".16, 4.56723, 4.56723, 4.56723, 4.56723, 4.56723
"SMAStrip (Nitinol)".17, 4.56923, 4.56923, 4.56923, 4.56923, 4.56923
"SMAStrip (Nitinol)".18, 4.57123, 4.57123, 4.57123, 4.57123, 4.57123
"SMAStrip (Nitinol)".19, 4.57323, 4.57323, 4.57323, 4.57323, 4.57323
"SMAStrip (Nitinol)".20, 4.57522, 4.57522, 4.57522, 4.57522, 4.57522
** ... 1091 like lines cut
** ----------------------------------------------------------------
** 
** STEP: Heat_03
** 
*Step, name=Heat_03, nlgeom=YES, inc=200
*Coupled Temperature-displacement, creep=none, deltmx=5.
0.1, 20., 4e-05, 5.
** 
** BOUNDARY CONDITIONS
** 
** Name: FixEdge Type: Symmetry/Antisymmetry/Encastre
*Boundary
Fixed-Set, ENCASTRE
** 
** LOADS
** 
** Name: Load_03   Type: Surface heat flux Using Field: AnalyticalField-1
*Dflux
"SMAStrip (Nitinol)".1, SPOS, 9.73719
"SMAStrip (Nitinol)".2, SPOS, 11.8069
"SMAStrip (Nitinol)".3, SPOS, 14.2156
"SMAStrip (Nitinol)".4, SPOS, 21.1346
"SMAStrip (Nitinol)".6, SPOS, 45.3959
"SMAStrip (Nitinol)".7, SPOS, 45.9033
"SMAStrip (Nitinol)".8, SPOS, 46.547
"SMAStrip (Nitinol)".9, SPOS, 51.5807
"SMAStrip (Nitinol)".10, SPOS, 56.6113
"SMAStrip (Nitinol)".11, SPOS, 64.0901
"SMAStrip (Nitinol)".12, SPOS, 66.6596
"SMAStrip (Nitinol)".13, SPOS, 71.6892
"SMAStrip (Nitinol)".14, SPOS, 76.6937
"SMAStrip (Nitinol)".15, SPOS, 76.5192
"SMAStrip (Nitinol)".16, SPOS, 86.3672
"SMAStrip (Nitinol)".17, SPOS, 91.7986
"SMAStrip (Nitinol)".18, SPOS, 96.8142
"SMAStrip (Nitinol)".19, SPOS, 101.837
"SMAStrip (Nitinol)".20, SPOS, 106.851
"SMAStrip (Nitinol)".21, SPOS, 111.864
** ... 979 like lines cut
** 
** INTERACTIONS
** 
** Interaction: ToVacuum
*Sradiate, amplitude=InstantVacuum
All-Surfaces, R, 4., 0.75
** 
** OUTPUT REQUESTS
** 
*Restart, write, frequency=0
** 
** FIELD OUTPUT: F-Output-HFL
** 
*Output, field
*Element Output, directions=YES
HFL, 
** 
** FIELD OUTPUT: F-Output-1
** 
*Output, field, variable=PRESELECT
** 
** HISTORY OUTPUT: H-Output-1
** 
*Output, history, variable=PRESELECT
*End Step
