*Heading
 Iteration 4
** Job name: SMAHeatTransient_04 Model name: Model_04
** Generated by: Abaqus/CAE 2025
*Preprint, echo=NO, model=NO, history=NO, contact=NO
**
** PARTS
**
*Part, name="SMAStrip (Nitinol)"
*Node
      1, 0.000107198968,   0.10000515, 0.00305784494
      2,           0., 0.0900080502,           0.
      3,           0., 0.0800071508,           0.
      4,           0., 0.0700062588,           0.
      5,           0., 0.0600053668,           0.
      6,           0., 0.0500044711,           0.
      7,           0., 0.0400035754,           0.
      8,           0., 0.0300026815,           0.
      9,           0., 0.0200017877,           0.
     10,           0., 0.0100008938,           0.
     11, 5.79818079e-05, -3.4075154e-05, 0.00293523562
     12, 0.00993279088,  0.100028776, 0.00268873898
     13, 0.00994948484, 0.0900247246, 0.00267518521
     14, 0.00996619463,  0.080020681, 0.00266162469
     15, 0.00998292305,   0.07001663, 0.00264805695
     16, 0.00999966729,  0.060012579, 0.00263448269
     17, 0.0100164302, 0.0500085317, 0.00262090121
     18, 0.0100332089, 0.0400044806, 0.00260731322
     19, 0.0100500062, 0.0300004352,  0.002593718
     20, 0.0100668203, 0.0199963842, 0.00258011627
** ... 1113 like lines cut
*Element, type=S4RT
   1,    1,    2,   13,   12
   2,    2,    3,   14,   13
   3,    3,    4,   15,   14
   4,    4,    5,   16,   15
   5,    5,    6,   17,   16
   6,    6,    7,   18,   17
   7,    7,    8,   19,   18
   8,    8,    9,   20,   19
   9,    9,   10,   21,   20
  10,   10,   11,   22,   21
  11,   12,   13,   24,   23
  12,   13,   14,   25,   24
  13,   14,   15,   26,   25
  14,   15,   16,   27,   26
  15,   16,   17,   28,   27
  16,   17,   18,   29,   28
  17,   18,   19,   30,   29
  18,   19,   20,   31,   30
  19,   20,   21,   32,   31
  20,   21,   22,   33,   32
** ... 1000 like lines cut
*Nset, nset=Set-1, generate
    1,  1133,     1
*Elset, elset=Set-1, generate
    1,  1020,     1
** Section: CompositeSection-1
*Shell Section, elset=Set-1, composite
0.0025, 3, Aluminum, 0., a
0.0025, 3, FakeSMA, 0., b
*End Part
**  
**
** ASSEMBLY
**
*Assembly, name=Assembly
**  
*Instance, name="SMAStrip (Nitinol)", part="SMAStrip (Nitinol)"
*End Instance
**  
*Nset, nset=Fixed-Set, instance="SMAStrip (Nitinol)", generate
  1,  10,   1
*Elset, elset=Fixed-Set, instance="SMAStrip (Nitinol)", generate
 1,  9,  1
*Nset, nset=Set-Temp, instance="SMAStrip (Nitinol)", generate
    1,  1133,     1
*Elset, elset=Set-Temp, instance="SMAStrip (Nitinol)", generate
    1,  1020,     1
*Elset, elset=_All-Surfaces_SPOS, internal, instance="SMAStrip (Nitinol)", generate
    1,  1020,     1
*Surface, type=ELEMENT, name=All-Surfaces
_All-Surfaces_SPOS, SPOS
*End Assembly
*Amplitude, name=InstantVacuum
             0.,              1.,              4.,              1.
** 
** MATERIALS
** 
*Material, name=Aluminum
*Conductivity
100.,
*Density
2300.,
*Elastic
 7e+10, 0.3
*Expansion
0.,
*Specific Heat
900.,
*Material, name=FakeSMA
*Conductivity
50.,
*Density
6450.,
*Elastic
 9e+10, 0.3
*Expansion
 0.0025,
*Specific Heat
800.,
** 
** PHYSICAL CONSTANTS
** 
*Physical Constants, absolute zero=0., stefan boltzmann=5.67e-08
** 
** PREDEFINED FIELDS
** 
** Name: Temp0   Type: Temperature Using Field: TempField_Initial
*Initial Conditions, type=TEMPERATURE
"SMAStrip (Nitinol)".1, 4.80445, 4.80445, 4.80445, 4.80445, 4.80445
"SMAStrip (Nitinol)".2, 4.80445, 4.80445, 4.80445, 4.80445, 4.80445
"SMAStrip (Nitinol)".3, 4.80444, 4.80444, 4.80444, 4.80444, 4.80444
"SMAStrip (Nitinol)".4, 4.80444, 4.80444, 4.80444, 4.80444, 4.80444
"SMAStrip (Nitinol)".5, 4.80444, 4.80444, 4.80444, 4.80444, 4.80444
"SMAStrip (Nitinol)".6, 4.80443, 4.80443, 4.80443, 4.80443, 4.80443
"SMAStrip (Nitinol)".7, 4.80443, 4.80443, 4.80443, 4.80443, 4.80443
"SMAStrip (Nitinol)".8, 4.80442, 4.80442, 4.80442, 4.80442, 4.80442
"SMAStrip (Nitinol)".9, 4.80441, 4.80441, 4.80441, 4.80441, 4.80441
"SMAStrip (Nitinol)".10, 4.80438, 4.80438, 4.80438, 4.80438, 4.80438
"SMAStrip (Nitinol)".11, 4.80434, 4.80434, 4.80434, 4.80434, 4.80434
"SMAStrip (Nitinol)".12, 4.80377, 4.80377, 4.80377, 4.80377, 4.80377
"SMAStrip (Nitinol)".13, 4.80376, 4.80376, 4.80376, 4.80376, 4.80376
"SMAStrip (Nitinol)".14, 4.80375, 4.80375, 4.80375, 4.80375, 4.80375
"SMAStrip (Nitinol)".15, 4.80375, 4.80375, 4.80375, 4.80375, 4.80375
"SMAStrip (Nitinol)".16, 4.80374, 4.80374, 4.80374, 4.80374, 4.80374
"SMAStrip (Nitinol)".17, 4.80374, 4.80374, 4.80374, 4.80374, 4.80374
"SMAStrip (Nitinol)".18, 4.80373, 4.80373, 4.80373, 4.80373, 4.80373
"SMAStrip (Nitinol)".19, 4.80372, 4.80372, 4.80372, 4.80372, 4.80372
"SMAStrip (Nitinol)".20, 4.80371, 4.80371, 4.80371, 4.80371, 4.80371
** ... 1113 like lines cut
** ----------------------------------------------------------------
** 
** STEP: Heat_04
** 
*Step, name=Heat_04, nlgeom=NO, inc=200
*Coupled Temperature-displacement, creep=none, deltmx=5.
0.1, 15., 4e-05, 5.
** 
** BOUNDARY CONDITIONS
** 
** Name: FixEdge Type: Symmetry/Antisymmetry/Encastre
*Boundary
Fixed-Set, ENCASTRE
** 
** LOADS
** 
** Name: Load_04   Type: Surface heat flux Using Field: AnalyticalField-1
*Dflux
"SMAStrip (Nitinol)".1, SPOS, 476.852
"SMAStrip (Nitinol)".2, SPOS, 476.786
"SMAStrip (Nitinol)".3, SPOS, 476.761
"SMAStrip (Nitinol)".4, SPOS, 476.744
"SMAStrip (Nitinol)".5, SPOS, 476.71
"SMAStrip (Nitinol)".6, SPOS, 476.688
"SMAStrip (Nitinol)".7, SPOS, 476.648
"SMAStrip (Nitinol)".8, SPOS, 476.586
"SMAStrip (Nitinol)".9, SPOS, 476.39
"SMAStrip (Nitinol)".10, SPOS, 476.43
"SMAStrip (Nitinol)".11, SPOS, 472.226
"SMAStrip (Nitinol)".12, SPOS, 472.178
"SMAStrip (Nitinol)".13, SPOS, 472.127
"SMAStrip (Nitinol)".14, SPOS, 472.076
"SMAStrip (Nitinol)".15, SPOS, 472.025
"SMAStrip (Nitinol)".16, SPOS, 471.973
"SMAStrip (Nitinol)".17, SPOS, 471.92
"SMAStrip (Nitinol)".18, SPOS, 471.871
"SMAStrip (Nitinol)".19, SPOS, 471.82
"SMAStrip (Nitinol)".20, SPOS, 471.781
** ... 967 like lines cut
** 
** INTERACTIONS
** 
** Interaction: ToVacuum
*Sradiate, amplitude=InstantVacuum
All-Surfaces, R, 4., 1.
** 
** OUTPUT REQUESTS
** 
*Restart, write, frequency=0
** 
** FIELD OUTPUT: F-Output-HFL
** 
*Output, field
*Element Output, directions=YES
HFL, 
** 
** FIELD OUTPUT: F-Output-1
** 
*Output, field, variable=PRESELECT
** 
** HISTORY OUTPUT: H-Output-1
** 
*Output, history, variable=PRESELECT
*End Step
